13

 C   -0.157440462196   -1.019880238943    0.060502897678
 O   -1.121134474391   -0.937304117646   -0.659920515207
 H    0.704889185030   -0.617456770983    1.982721326994
 H   -1.076828902038   -0.476121626986    1.913945588485
 C   -0.210007080440   -1.033050626460    1.561494250985
 H   -0.301938721567   -2.074766285324    1.885539093914
 H    0.850197415570   -1.173987957514   -0.375742200781
 H    1.243930416036    2.519206945558   -1.264878597793
 C    1.265167579744    1.498668079861   -0.873541831020
 H    1.280791003085    0.793487355324   -1.712282598158
 H    2.175751240109    1.371016369906   -0.288445418911
 O    0.180603449776    1.252498947365   -0.004347822641
 H   -0.638880436794    1.255763324334   -0.510165869044
