13

 C    0.068330286473    0.005166800365   -1.162440306103
 O   -1.031214987512   -0.273278633251   -1.896424463339
CL    1.423485266305    0.380597309793    1.119492059696
CL   -1.487812194429    0.325255305670    1.062256730661
 C   -0.018130449355   -0.334971364394    0.347603366015
CL    0.026112752014   -2.100833811076    0.538694433152
 H    1.013776641755   -0.395311791254   -1.547050332017
 H    0.758209231257    3.162612650963   -2.217625859206
 C    1.087320406393    2.147362332612   -1.995732570861
 H    1.319897986550    1.626464047106   -2.930687025304
 H    1.973665298982    2.183345259761   -1.360089994561
 O    0.020298267077    1.503250153878   -1.303500140234
 H   -1.239895418284    0.663143857113   -2.086608191210
