13

 C   -0.039203010319   -0.347534113808   -0.823243097650
 O   -1.075922865620   -0.475063825392   -1.475678922882
 F    1.061271636340   -0.023317926928    1.290146135800
 F   -1.098361163220    0.081288448245    1.277496816340
 C   -0.054512714113   -0.506864528661    0.710532566287
 F   -0.103755390380   -1.815642067065    0.972723296198
 H    0.961073581870   -0.632469993862   -1.211490102135
 H    1.031765093010    2.931931670615   -1.844690873174
 C    1.221178364194    1.883946090132   -1.620916846358
 H    1.397645074779    1.319644024811   -2.539713342763
 H    2.072014459791    1.798464475050   -0.949550942205
 O    0.097748804019    1.362668662479   -0.923413280975
 H   -0.707617849397    1.370532506603   -1.476286480366
