13

 C   -0.105925211393   -0.843520518525    0.065130884644
 O   -1.093012792291   -0.841821255008   -0.659369375636
 H    0.724386152087   -0.683955563587    2.066967722087
 H   -1.049777101775   -0.462046408362    1.951831848863
 C   -0.187936011492   -1.003012567221    1.562461638934
 H   -0.337383483798   -2.070880633496    1.747698408666
 H    0.899891902878   -1.049486179756   -0.357312055401
 H    1.103086684785    2.485707092587   -1.152560022035
 C    1.224547850303    1.446918993951   -0.842233130834
 H    1.318646782643    0.805974176129   -1.724912061945
 H    2.121710235908    1.362556570327   -0.231301140613
 O    0.136061449524    1.051372054915   -0.038866471816
 H   -0.674575151421    1.044544214960   -0.570042847818
