13

 C   -0.027439346087   -0.262669850598   -1.209149282985
 O   -1.015451341984   -0.424035872940   -1.866453884285
CL    1.412597046472    0.378698022094    1.096498505544
CL   -1.491084411260    0.324492949133    1.059568163115
 C   -0.033742089777   -0.353402038221    0.345957455944
CL    0.028556512674   -2.117767380656    0.560262091468
 H    1.003855816560   -0.343256731993   -1.597708501445
 H    0.979966965408    3.266432378655   -2.338015869749
 C    1.133634657211    2.230254802316   -2.033660965137
 H    1.292387994306    1.606729070133   -2.919620867283
 H    2.007890528907    2.174201416074   -1.387254466496
 O    0.036157363078    1.768833367735   -1.267087451508
 H   -0.779043987445    1.815227802796   -1.782891127507
