13

 C   -0.173604153197   -1.079851324594    0.062331822131
 O   -1.132155399666   -0.973813678836   -0.659352127312
 H    0.678065218678   -0.586085194696    1.961026613452
 H   -1.107675547193   -0.511185208916    1.898912916918
 C   -0.223564953282   -1.050022510277    1.561871276396
 H   -0.272767735941   -2.082061305739    1.924260532019
 H    0.830271605864   -1.258335210769   -0.374096425290
 H    1.282699149948    2.527310186705   -1.313397236328
 C    1.279075506121    1.519312939450   -0.889217842349
 H    1.258974107794    0.788365832945   -1.705314740493
 H    2.196675870579    1.381936584250   -0.317246280615
 O    0.203047593063    1.332541235342    0.007991913039
 H   -0.621335957603    1.316631655041   -0.487929629034
