13

 C    0.023565968159    0.026362164591   -1.608697058976
 O   -0.942349824832    0.053886037764   -2.304624562406
BR    1.558456937086    0.454991435755    0.834043381834
BR   -1.605478128552    0.639076101503    0.706680330206
 C   -0.043987910951   -0.161045509546   -0.075816858787
BR   -0.112655994492   -2.110474991324   -0.035941381203
 H    1.060821136352   -0.022813174203   -1.983178030338
 H    1.471673279629    3.712042729276   -2.558118824945
 C    1.426050112743    2.658339392144   -2.273064279105
 H    1.409023999182    2.042277144676   -3.179144839805
 H    2.315596639875    2.413859769303   -1.692914350919
 O    0.313033637760    2.392444200329   -1.436956357284
 H   -0.502367511066    2.571245917249   -1.915707183439
