13

 C   -0.048522312454   -0.370517797179   -0.827441565109
 O   -1.078649364180   -0.494120376760   -1.473817317919
 F    1.059687691187   -0.023325673413    1.286032424940
 F   -1.098886070120    0.081387777936    1.277478903688
 C   -0.056302843100   -0.508023025215    0.709335420781
 F   -0.103693278801   -1.817022334384    0.975611948011
 H    0.955660398543   -0.630096889399   -1.221497795672
 H    1.058331582813    2.941479133851   -1.857475445135
 C    1.228101864013    1.891755126730   -1.623426340960
 H    1.396904397936    1.318845056764   -2.538822416646
 H    2.080880679652    1.799579353887   -0.955122747603
 O    0.103968614639    1.390705962909   -0.917296498913
 H   -0.703914040896    1.434533810870   -1.457880237691
