13

 C   -0.029286908688   -0.278938619414   -1.208547765604
 O   -1.016672437929   -0.434360475008   -1.864833847103
CL    1.410422399084    0.377888477627    1.091179395373
CL   -1.491492053701    0.323756968039    1.057956172373
 C   -0.035247798501   -0.357309857545    0.345781088850
CL    0.028823691686   -2.122060395621    0.565690760810
 H    1.001284569008   -0.346232068857   -1.600447277814
 H    1.000002986090    3.275869603583   -2.349459591170
 C    1.138789959002    2.239635548744   -2.037292475624
 H    1.286497199684    1.608386217840   -2.919952116993
 H    2.015938869324    2.176192943126   -1.395206283295
 O    0.039647071623    1.797275426550   -1.262015748995
 H   -0.775799104266    1.848706145673   -1.776320360309
