13

 C    0.036910171492    0.129708746177   -1.615762178763
 O   -0.940062184150    0.102793917730   -2.316042218406
BR    1.576766656067    0.458479427414    0.875875420649
BR   -1.601723988831    0.642325405551    0.720790049320
 C   -0.029170455261   -0.124607047046   -0.078950279567
BR   -0.112858891507   -2.062224300874   -0.078404187164
 H    1.069998543868   -0.015681286579   -1.982021447285
 H    1.275928399730    3.609654631541   -2.449412663830
 C    1.369553041844    2.544046422863   -2.237658917913
 H    1.494803028962    1.990165935913   -3.173505677354
 H    2.232584419232    2.380448928615   -1.594792432196
 O    0.239858702450    2.086605835997   -1.517129722077
 H   -0.567984720752    2.220300765240   -2.031325668752
