13

 C   -0.169148818730   -1.063727628666    0.061621972290
 O   -1.129217459875   -0.963872349309   -0.659438545151
 H    0.686994135048   -0.595762541059    1.966561073391
 H   -1.097611480272   -0.498959742691    1.902612866011
 C   -0.219428794447   -1.045037980873    1.561689092050
 H   -0.282518071685   -2.079601123420    1.914522512211
 H    0.835915070762   -1.233901749319   -0.375163744223
 H    1.273411118608    2.525296881735   -1.299453779371
 C    1.275444546136    1.513503185257   -0.884656403294
 H    1.264935456167    0.789801261149   -1.707419714217
 H    2.190843698910    1.377852619899   -0.308795846577
 O    0.196345045368    1.310597341678    0.004574035751
 H   -0.626380376464    1.300184860441   -0.494722885059
