13

 C   -0.074641809029   -0.462836281914   -0.834700136705
 O   -1.093193729912   -0.566063051194   -1.466256540225
 F    1.051583908906   -0.024024610247    1.256603351855
 F   -1.102554849646    0.079156141190    1.270306065601
 C   -0.065429494422   -0.520700036042    0.705221508597
 F   -0.105501533965   -1.827887255145    1.000849256944
 H    0.934475103192   -0.636489334396   -1.253041753452
 H    1.169414139695    2.980936940146   -1.910963681849
 C    1.259094682631    1.929416914949   -1.636627412250
 H    1.382428220642    1.320805835981   -2.537889834733
 H    2.123035684208    1.802652494962   -0.986861922826
 O    0.128932372727    1.515515276381   -0.888829161169
 H   -0.680199238313    1.619190927949   -1.407007760129
