13

 C   -0.025227017439   -0.245223644977   -1.209444347641
 O   -1.014093333890   -0.412753919196   -1.868022070847
CL    1.414718267513    0.379399788139    1.101281745463
CL   -1.490716668233    0.325011817923    1.060862805826
 C   -0.032236806746   -0.349986494044    0.346280894455
CL    0.028277823885   -2.113948254092    0.555587650453
 H    1.006767457627   -0.340615937327   -1.594126122981
 H    0.959280709744    3.256872190875   -2.326369172577
 C    1.128299924585    2.221052811540   -2.030088500444
 H    1.297757214192    1.605505240206   -2.919328729474
 H    1.999529794878    2.172302167580   -1.379355485928
 O    0.032704098365    1.740559829976   -1.272321185846
 H   -0.782460517144    1.781241950800   -1.789930166185
