13

 C   -0.034237222617   -0.328088228895   -1.205193908375
 O   -1.020485889139   -0.465209995033   -1.859189751109
CL    1.402637214829    0.373713521669    1.066440403443
CL   -1.494043850642    0.318151390820    1.048684663433
 C   -0.040899594660   -0.376573035623    0.345905739411
CL    0.029336957020   -2.141831675132    0.594011241239
 H    0.993886756634   -0.357412967954   -1.605958097413
 H    1.069870033441    3.311797401560   -2.389162113874
 C    1.157050200435    2.277138085023   -2.051454736382
 H    1.259990041900    1.620559201401   -2.922534337437
 H    2.044343229770    2.184357665334   -1.426304889922
 O    0.054306117854    1.905039840028   -1.243900327749
 H   -0.762620206365    1.976338868415   -1.749868753675
