13

 C    0.092169676825    0.271465128287   -1.579612078299
 O   -0.927269939167    0.206328661286   -2.316729995126
BR    1.580298590435    0.458328838314    0.882662165027
BR   -1.600598802355    0.641636062748    0.721301059194
 C   -0.018697564444   -0.117070958669   -0.075107330899
BR   -0.113627469089   -2.056019199729   -0.083366946270
 H    1.095673541405   -0.029563225107   -1.938682544424
 H    1.119043420244    3.548473816733   -2.371720356550
 C    1.330544868794    2.494507817929   -2.223308090043
 H    1.511152916697    1.998248049791   -3.179650151178
 H    2.182842475198    2.373301870960   -1.556835629505
 O    0.200118115310    1.912118075783   -1.569874495715
 H   -0.598388369925    1.812629377703   -2.166062272183
