13

 C   -0.085806150469   -0.514636295294   -0.835970248014
 O   -1.102421591171   -0.603809090701   -1.461601065344
 F    1.047557262532   -0.025458382905    1.231117587552
 F   -1.106484320441    0.074829504265    1.259700055741
 C   -0.071453913884   -0.534776799808    0.703162851413
 F   -0.108182448995   -1.837064205464    1.028227615311
 H    0.922951031027   -0.647744750433   -1.266414840715
 H    1.230739137179    3.004721173680   -1.937951716673
 C    1.277092850241    1.954627916106   -1.644947993805
 H    1.366907380665    1.329732924461   -2.539766133316
 H    2.147908643774    1.803189007515   -1.009049709473
 O    0.145393915498    1.593849266276   -0.871806082411
 H   -0.663275954758    1.718821304509   -1.383674434712
