13

 C   -0.034894048625   -0.334556270934   -1.204650568986
 O   -1.021068693878   -0.469154472058   -1.858415847222
CL    1.401525259243    0.372813519986    1.061535456091
CL   -1.494722480692    0.316611799153    1.046575586663
 C   -0.041814865828   -0.380490028123    0.345971223884
CL    0.029285139511   -2.145566457160    0.600167886877
 H    0.992860810155   -0.358718938316   -1.606547446342
 H    1.080751040491    3.318316830287   -2.394872639288
 C    1.159934238403    2.283983477201   -2.053887901131
 H    1.254725657987    1.624098376231   -2.923448790732
 H    2.048946522250    2.185775611568   -1.431922956926
 O    0.057209483448    1.923087799307   -1.240938632971
 H   -0.760337717297    1.998716137830   -1.744852149398
