13

 C    0.133210106821    0.467483089333   -1.559547466553
 O   -0.949131094185    0.127245952442   -2.352731362516
BR    1.579922067277    0.457197314121    0.883191334597
BR   -1.601673495559    0.644073833248    0.721297876566
 C   -0.006986792930   -0.088526504422   -0.102125035625
BR   -0.113241286607   -2.038510070763   -0.095176847808
 H    1.023410957064   -0.007123560364   -1.985775357802
 H    1.119455333411    3.491729931881   -2.282134381088
 C    1.338387516017    2.429465116152   -2.195061902864
 H    1.431596917392    1.996909912229   -3.195265389815
 H    2.270031319380    2.292874694470   -1.638932286325
 O    0.250538991011    1.849892683480   -1.488151896676
 H   -1.625516502403    0.798637997258   -2.206412261687
