13

 C    0.023865105481    0.025654375311   -1.608260793015
 O   -0.941563740287    0.056127331769   -2.304483695990
BR    1.557789943726    0.454721081600    0.831458353015
BR   -1.605902520366    0.638434895165    0.705486280820
 C   -0.044561521825   -0.163189706381   -0.075813387409
BR   -0.112835274252   -2.113207450857   -0.032725869280
 H    1.061254022387   -0.021887332440   -1.982604771195
 H    1.477030915382    3.717715540835   -2.560622077637
 C    1.427685743487    2.664422171863   -2.274514519720
 H    1.404170603942    2.047834133278   -3.180098373397
 H    2.318686175615    2.416383992001   -1.698057131554
 O    0.317014911384    2.403953882409   -1.433476896133
 H   -0.498762501021    2.585206727461   -1.908975819862
