13

 C    0.043203199209   -0.186515751958   -0.794278686287
 O   -1.102613171611   -0.424212383581   -1.499248549435
 F    1.062338545292   -0.025706997764    1.295621406908
 F   -1.097860337987    0.079737375889    1.275309091538
 C   -0.047246794122   -0.500028937915    0.711023229614
 F   -0.105241385197   -1.813184028553    0.966336220534
 H    0.933312605670   -0.684825452112   -1.199793414963
 H    0.949851516975    2.890511504842   -1.799977090059
 C    1.212424757089    1.852170665963   -1.602078654582
 H    1.402872444039    1.339174291950   -2.550453044269
 H    2.106817880537    1.819871819319   -0.975998458062
 O    0.107731861733    1.270348096255   -0.917984375734
 H   -1.337841776723    0.489190890324   -1.724194071538
