13

 C   -0.081116006477   -0.492303526880   -0.835459599078
 O   -1.098244808718   -0.587550962872   -1.463610821946
 F    1.049186777875   -0.024677817258    1.242925462790
 F   -1.104601199090    0.077037440531    1.264967447122
 C   -0.068809575392   -0.527991776517    0.704066779565
 F   -0.106886716247   -1.832910635940    1.014980239932
 H    0.927995251964   -0.642111944433   -1.260803868510
 H    1.204295864191    2.994037433937   -1.926780563081
 C    1.269249669029    1.943191926024   -1.641308657008
 H    1.374224833297    1.324771281347   -2.538673285020
 H    2.137146406014    1.802990574412   -0.999164204364
 O    0.137908043462    1.559281833427   -0.879234092406
 H   -0.670499540399    1.674445654880   -1.393985969450
