13

 C   -0.036857527408   -0.352287017261   -1.203366723141
 O   -1.023017511356   -0.479063068178   -1.856571231473
CL    1.398752834024    0.369544024251    1.044745686163
CL   -1.497446981935    0.310250644294    1.038875587917
 C   -0.044515672498   -0.393909869271    0.346053976409
CL    0.028735680235   -2.157551297257    0.622408191327
 H    0.989721101494   -0.361690493020   -1.608586473719
 H    1.113332462304    3.340980393098   -2.409573984898
 C    1.168384686699    2.307092480777   -2.061646555694
 H    1.235868812627    1.639845148461   -2.928257062606
 H    2.063187354624    2.189810180694   -1.451131085796
 O    0.067483633752    1.979251700074   -1.231613036714
 H   -0.752580152244    2.070887433349   -1.727215192294
