13

 C   -0.086931125439   -0.520011338523   -0.836103392575
 O   -1.103496814126   -0.607775469417   -1.461115927922
 F    1.047189711310   -0.025697146071    1.228069574305
 F   -1.106983347287    0.074213426524    1.258252453545
 C   -0.072102274672   -0.536588228184    0.702933274397
 F   -0.108524629720   -1.838101873226    1.031789679603
 H    0.921694918280   -0.649323178909   -1.267757895060
 H    1.237143228708    3.007446823341   -1.940512737592
 C    1.279011407979    1.957555597302   -1.645839078827
 H    1.364967023257    1.331239445324   -2.540110375623
 H    2.150536351653    1.803235600853   -1.011522705707
 O    0.147275034327    1.602390532209   -0.870011339315
 H   -0.660844385262    1.729898357910   -1.380609344690
