13

 C    0.065753197746    0.078634227331   -1.173556662692
 O   -1.039222823043   -0.306617257077   -1.898867121023
CL    1.423470770021    0.379955133793    1.120103774248
CL   -1.488085778078    0.325328477536    1.062358145104
 C   -0.017063865826   -0.326123162840    0.338683585065
CL    0.025661644855   -2.098254147782    0.535832710787
 H    0.988518496396   -0.369542239111   -1.563193034218
 H    0.742892883506    3.144065407207   -2.199065218856
 C    1.092530803813    2.135053859968   -1.987596238178
 H    1.312158728769    1.624373439415   -2.930491195300
 H    1.994989105312    2.184871187088   -1.373431121683
 O    0.042446858164    1.487448554028   -1.284049442854
 H   -1.455735679439    0.533049493135   -2.129571341792
