13

 C    0.026609782033   -0.098120938424   -0.801970928280
 O   -1.099990319279   -0.524035348117   -1.489987242949
 F    1.061403079305   -0.022417785415    1.304108534432
 F   -1.104093183045    0.089927068700    1.277757669523
 C   -0.043529179230   -0.465327169966    0.689888156191
 F   -0.109531138957   -1.783621658661    0.895514128937
 H    0.896966244644   -0.612813650931   -1.223629437436
 H    1.021179918076    2.864145146429   -1.755594431747
 C    1.234122661167    1.809792492560   -1.592445192013
 H    1.335426118589    1.308648981880   -2.559433885953
 H    2.160763845981    1.711404326826   -1.020546023415
 O    0.137482110826    1.284356590494   -0.860009899451
 H   -1.762156554355    0.172009381497   -1.400843108665
