13

 C    0.047863742043   -0.049363400135   -1.169735321907
 O   -1.019157485166   -0.272893174708   -1.888824426278
CL    1.423727818053    0.380967523012    1.119516479077
CL   -1.487875062093    0.325322530344    1.062458048581
 C   -0.019102619602   -0.336941375152    0.350196733585
CL    0.026369459719   -2.100814021143    0.539092360198
 H    1.031065760187   -0.373376624448   -1.540450665273
 H    0.772345496933    3.177268478932   -2.227899188266
 C    1.086506799758    2.155671605705   -2.002810170334
 H    1.318115299553    1.617928695342   -2.927038573138
 H    1.949036984577    2.170222167652   -1.344127524630
 O    0.004147533357    1.517876980683   -1.313803585224
 H   -0.930134307397    0.967892096907   -1.941026417849
