13

 C    0.042885227386   -0.191273195221   -0.793690230232
 O   -1.101882321190   -0.422358324338   -1.499109632725
 F    1.062315071259   -0.025616207216    1.295511146697
 F   -1.097799075034    0.079768901788    1.275296099152
 C   -0.047333351979   -0.500483984958    0.711406984832
 F   -0.105206802568   -1.813418027770    0.966687100961
 H    0.934873695423   -0.686217857493   -1.198936636818
 H    0.951004979662    2.891641171160   -1.801110714910
 C    1.212166577798    1.852952486953   -1.602595029712
 H    1.403181097154    1.339084215169   -2.550405258134
 H    2.105392151019    1.819607980103   -0.975086092698
 O    0.106401930342    1.271546438840   -0.919014292297
 H   -1.323404909294    0.496224253881   -1.720455113122
