13

 C   -0.084664333534   -0.509174022557   -0.835840263462
 O   -1.101359811709   -0.599807828627   -1.462093308148
 F    1.047940204332   -0.025238255917    1.234131694032
 F   -1.105995655661    0.075421162369    1.261098467796
 C   -0.070800075934   -0.533004893457    0.703390285709
 F   -0.107846400779   -1.836024217540    1.024758665859
 H    0.924207955206   -0.646253934729   -1.265048927600
 H    1.224257041760    3.002019091585   -1.935298746307
 C    1.275157087336    1.951727655293   -1.644050371766
 H    1.368805430934    1.328329054785   -2.539453837645
 H    2.145266536375    1.803139596810   -1.006572262610
 O    0.143472402464    1.585270062947   -0.873652163442
 H   -0.664759261532    1.707630301178   -1.386102842545
