13

 C    0.059094262504   -0.029737744464   -1.164375937435
 O   -1.024826465382   -0.267103502920   -1.892943343179
CL    1.423618428353    0.380834480216    1.119471838443
CL   -1.487840203744    0.325295222466    1.062368943484
 C   -0.018698837536   -0.336480180711    0.349407587734
CL    0.026273975012   -2.100897862911    0.539008823604
 H    1.024572980469   -0.385482957005   -1.542388228956
 H    0.766330751629    3.174164129620   -2.224940820510
 C    1.086791326365    2.152368323612   -1.999734115679
 H    1.319633432716    1.621605432583   -2.929273974407
 H    1.957000194655    2.176033131994   -1.352700974774
 O    0.010327024721    1.512426385537   -1.310129895477
 H   -1.071226658851    0.776867445107   -2.007676276777
