13

 C    0.067250343150    0.229347489381   -1.597999590234
 O   -0.926932462468    0.171985904432   -2.314482207613
BR    1.580010500093    0.458485274555    0.881894885821
BR   -1.600873054281    0.641775371741    0.721402084734
 C   -0.021767869571   -0.118069566790   -0.075339139326
BR   -0.113448808396   -2.056566337893   -0.082805824070
 H    1.089432002626   -0.015415764701   -1.950834245986
 H    1.159790372993    3.566647878839   -2.391358392331
 C    1.339740863218    2.505880002134   -2.226018422228
 H    1.509756689363    1.993260246232   -3.176136251056
 H    2.190800887109    2.374314029923   -1.562426840753
 O    0.212408368402    1.957321451885   -1.556662611587
 H   -0.586050086646    2.009574181169   -2.115350530865
