13

 C    0.034292631127    0.117433627149   -1.616571576004
 O   -0.941523649269    0.095292025408   -2.315737946338
BR    1.576002086443    0.458408097053    0.874494500014
BR   -1.601832586140    0.642391167879    0.720522099092
 C   -0.030156280186   -0.125936401761   -0.079149022675
BR   -0.112767282600   -2.063679618960   -0.077334038030
 H    1.067915366676   -0.017213194402   -1.984367245508
 H    1.290876399107    3.615377373084   -2.457489507991
 C    1.373612752677    2.549883043864   -2.239610651832
 H    1.491358738723    1.990587196185   -3.173429054150
 H    2.238407313710    2.381575599608   -1.600078480415
 O    0.243629983497    2.105378672505   -1.511822209504
 H   -0.564119865423    2.242569983071   -2.024196831757
