13

 C    0.006693921941   -0.279637173482   -0.800658013323
 O   -1.082450078059   -0.421790173482   -1.488010013323
 F    1.062802921941   -0.023956173482    1.295002986677
 F   -1.097540078059    0.080594826518    1.276018986677
 C   -0.049908078059   -0.505362173482    0.713694986677
 F   -0.104426078059   -1.814355173482    0.969129986677
 H    0.966199921941   -0.661243173482   -1.191146013323
 H    0.977178921941    2.910158826518   -1.818850013323
 C    1.210429921941    1.867744826518   -1.614497013323
 H    1.400920921941    1.327363826518   -2.544543013323
 H    2.068480921941    1.802669826518   -0.948289013323
 O    0.082404921941    1.298677826518   -0.934784013323
 H   -0.815825078059    0.946670826518   -1.521710013323
