13

 C   -0.072519978117   -0.453704426213   -0.834393578117
 O   -1.091688215906   -0.559301786579   -1.467070154066
 F    1.052375013379   -0.023886569307    1.260425032602
 F   -1.102018797638    0.079644810879    1.271628047380
 C   -0.064412265453   -0.518787438174    0.705586031474
 F   -0.105152211743   -1.826458842943    0.997152517754
 H    0.936478476758   -0.635151267085   -1.250487752051
 H    1.158551956535    2.976994313801   -1.905865541680
 C    1.255971116850    1.925361549108   -1.635206883736
 H    1.384674899368    1.320042120870   -2.537778178728
 H    2.118675602351    1.802499293284   -0.983206409008
 O    0.126297051297    1.502350904744   -0.891770595875
 H   -0.683083770440    1.602375585218   -1.411011966753
