13

 C    0.024341977017    0.058396727640   -1.616291316094
 O   -0.946851824843    0.060617789201   -2.311329887092
BR    1.569865095209    0.457570286029    0.862930060126
BR   -1.602550842778    0.642518515851    0.717507968858
 C   -0.035891785779   -0.136306426775   -0.078326397818
BR   -0.112245655538   -2.076916506487   -0.067360862409
 H    1.059651556395   -0.029088679753   -1.989863382768
 H    1.374343827967    3.649677922609   -2.505116007804
 C    1.397227188492    2.587814038375   -2.252598648868
 H    1.465535075743    1.997953065597   -3.173304106129
 H    2.271485514818    2.390658228949   -1.633349466190
 O    0.267555470603    2.221838443291   -1.481567836237
 H   -0.540173542058    2.372634704461   -1.985903970251
