13

 C   -0.077759030792   -0.780298030365    0.073780865469
 O   -1.087520837572   -0.802170193511   -0.661134787159
 H    0.720073386112   -0.705722586464    2.101235849727
 H   -1.049310613228   -0.464428663059    1.952701777631
 C   -0.182892822722   -0.998430513481    1.563605730290
 H   -0.346489335456   -2.070279023019    1.703928547994
 H    0.916333235045   -1.045056895544   -0.344130542898
 H    1.046196309345    2.469198022869   -1.115859080150
 C    1.211049286202    1.430374640863   -0.834345333521
 H    1.323881502655    0.812805316781   -1.730193203735
 H    2.106216026457    1.361624252323   -0.218713804427
 O    0.120111222273    0.985258126302   -0.050953761549
 H   -0.679627296718    0.883911463190   -0.609282261636
