13

 C   -0.066341264062   -0.428813645170   -0.833243888961
 O   -1.087646137652   -0.540473954031   -1.469240233471
 F    1.054610565326   -0.023610276161    1.269846984321
 F   -1.100780843598    0.080633550116    1.274496817960
 C   -0.061731167651   -0.514351162246    0.706618266182
 F   -0.104397044961   -1.822917482689    0.988542556432
 H    0.942021447602   -0.632185713764   -1.243017893529
 H    1.128709989636    2.966334370701   -1.891597647855
 C    1.247476842590    1.914675075272   -1.631421737110
 H    1.390015709751    1.318800937612   -2.537736322944
 H    2.106871717560    1.801906262286   -0.973693591171
 O    0.119368329740    1.467337029299   -0.899700256821
 H   -0.690575233193    1.556233406063   -1.422448706623
