13

 C    0.115636069234    0.299710164347   -1.563717808094
 O   -0.934121213403    0.227438427735   -2.322567118742
BR    1.580265308641    0.458223955455    0.882834585036
BR   -1.600502916301    0.641603989955    0.721306120516
 C   -0.017213576898   -0.116646556577   -0.076039365082
BR   -0.113713260171   -2.055946364494   -0.083449328068
 H    1.091914211360   -0.046779435990   -1.938621027278
 H    1.102082848686    3.543475281982   -2.364280461498
 C    1.328458750380    2.488564859709   -2.220654020128
 H    1.512898454420    2.004319061094   -3.182499425758
 H    2.189151817959    2.378274137778   -1.563564449820
 O    0.196759585373    1.891205368106   -1.574045051001
 H   -0.694111534781    1.555094063624   -2.222357625116
