13

 C    0.056793296241   -0.034574623619   -1.165370590235
 O   -1.023582231452   -0.267568139074   -1.892116612582
CL    1.423644296156    0.380867387060    1.119480482263
CL   -1.487847283087    0.325301591636    1.062389464670
 C   -0.018791078668   -0.336614848817    0.349614206634
CL    0.026297064776   -2.100881884296    0.539032771072
 H    1.025997868707   -0.382826486274   -1.541773052587
 H    0.767409001503    3.176094005451   -2.225924499920
 C    1.086816266816    2.153084720781   -2.000351958126
 H    1.319389364209    1.620637637795   -2.928948977955
 H    1.954037440769    2.174681271086   -1.351557152838
 O    0.008831353121    1.513713985731   -1.311051478067
 H   -1.039786990695    0.810287871941   -1.992374555207
