13

 C   -0.021760933718   -0.316158593416   -0.814510913472
 O   -1.075320515647   -0.448955717145   -1.479621821666
 F    1.062645610987   -0.023477879785    1.293679582461
 F   -1.097772254702    0.080960494491    1.276869119833
 C   -0.052279750227   -0.506107261653    0.712233820446
 F   -0.104037300899   -1.814545417799    0.970262847103
 H    0.967206668354   -0.641333983549   -1.198680077524
 H    1.000732345579    2.918703356509   -1.829438292795
 C    1.213692117929    1.875231220796   -1.618340656010
 H    1.398303771281    1.321883703638   -2.541691118903
 H    2.064249154208    1.797483460104   -0.944138392935
 O    0.088718297110    1.327854280878   -0.930377865124
 H   -0.718668335076    1.239232540605   -1.497971932192
