13

 C   -0.000416132861   -0.500681625440    0.076992426259
 O   -1.113952866453   -0.844817927199   -0.718382632165
 H    0.710088053858   -0.729220611310    2.094048186607
 H   -1.031855153611   -0.413085909054    1.952219733011
 C   -0.186786607102   -0.946014872287    1.511514241168
 H   -0.389132990427   -2.017057766427    1.539483510753
 H    0.863172339434   -1.002339066260   -0.374846360685
 H    1.015946558326    2.421158098051   -0.984100926181
 C    1.197834375059    1.361237647317   -0.812319586701
 H    1.180444124216    0.836567973617   -1.772771255341
 H    2.181997562350    1.238914443143   -0.347899315252
 O    0.177154987367    0.892781269459    0.048377106067
 H   -1.696416076980   -0.078606318217   -0.714586259401
