13

 C    0.028852669772   -0.105832944179   -0.805678690002
 O   -1.108058918757   -0.507156550847   -1.493594606053
 F    1.062649416784   -0.024830124204    1.300339813834
 F   -1.102524381787    0.085371281303    1.277226496692
 C   -0.044935752169   -0.473459288262    0.692472056938
 F   -0.107482476557   -1.790103220147    0.919201486137
 H    0.900805473283   -0.621194586997   -1.225310577522
 H    0.989471300982    2.867498728293   -1.772229673759
 C    1.231006486122    1.821999498704   -1.591910336263
 H    1.363225372546    1.311632207636   -2.550376468139
 H    2.150105816937    1.758850949217   -1.003740257599
 O    0.136831441781    1.277197814248   -0.870135568920
 H   -1.677588368045    0.269188281713   -1.548894564775
