13

 C   -0.152751954022   -1.002078904976    0.060351803123
 O   -1.117910968209   -0.927076161429   -0.660095539521
 H    0.709978187711   -0.625066707864    1.989932043069
 H   -1.070780555294   -0.470458978461    1.918804308322
 C   -0.206847218948   -1.028824619797    1.561474578622
 H   -0.307663930663   -2.073629744408    1.872585778708
 H    0.855652033446   -1.152667672615   -0.375172557141
 H    1.231011892188    2.516393083998   -1.252136227320
 C    1.260920271536    1.492909300788   -0.869581212560
 H    1.286541819222    0.794777941336   -1.713982196131
 H    2.169901152679    1.369200595397   -0.281243280859
 O    0.175107359670    1.230112800999   -0.007808631916
 H   -0.643539065671    1.237845162168   -0.515518339438
