13

 C   -0.026010156630   -0.251155055121   -1.209386770879
 O   -1.014561301835   -0.416620035181   -1.867509008900
CL    1.414021085986    0.379177267723    1.099749367689
CL   -1.490836736644    0.324859912124    1.060465954321
 C   -0.032738503183   -0.351070954113    0.346155208859
CL    0.028370735398   -2.115166183080    0.557063561505
 H    1.005757803262   -0.341449874750   -1.595419691444
 H    0.966246902959    3.260071522415   -2.330270760419
 C    1.130098269475    2.224096891680   -2.031272500613
 H    1.296031162658    1.605866559352   -2.919421623218
 H    2.002350947621    2.172922558025   -1.381979560065
 O    0.033854108644    1.749957485100   -1.270557186266
 H   -0.781318310666    1.792647228378   -1.787519074644
