13

 C   -0.015016236640   -0.693984312179    0.100909381099
 O   -1.103680484787   -0.754776494915   -0.678373318033
 H    0.713580229060   -0.717474682305    2.116343333920
 H   -1.047122664456   -0.458808109648    1.947380567547
 C   -0.181282802617   -0.999021090901    1.562194394486
 H   -0.353894282271   -2.071143893485    1.683908291688
 H    0.910587669654   -1.084371254908   -0.339436569773
 H    0.998070550072    2.456957465753   -1.087263876210
 C    1.205152175937    1.413807835273   -0.823369230874
 H    1.330118188561    0.827917621395   -1.741263683580
 H    2.122354957607    1.372590280533   -0.237838056648
 O    0.116118862403    0.926248656849   -0.051058540451
 H   -1.012616510622    0.277302537278   -0.763792440813
