13

 C   -0.023934211841   -0.708074585228    0.097826414075
 O   -1.099956509709   -0.757091899288   -0.675600038510
 H    0.714044659337   -0.717141185709    2.116565903028
 H   -1.048139599599   -0.459993239175    1.947518862876
 C   -0.181003825888   -0.998691035106    1.562811206746
 H   -0.353349868870   -2.070883695960    1.684478788296
 H    0.914904861191   -1.076437699230   -0.337946263305
 H    1.002506126376    2.460578611959   -1.090833652953
 C    1.205296971791    1.415878445351   -0.825246399814
 H    1.329178595008    0.825327787379   -1.739287849538
 H    2.115529394386    1.369961561807   -0.232810854853
 O    0.112400401748    0.931394962768   -0.054192313567
 H   -0.912544532752    0.365815511687   -0.712210861207
