13

 C    0.047411396314    0.113198706929   -1.181175652391
 O   -1.024916757712   -0.381729281951   -1.900230861953
CL    1.424346099530    0.380976984223    1.123039762214
CL   -1.491813278530    0.331323318318    1.063403179695
 C   -0.011939072624   -0.303790968754    0.323681845195
CL    0.023672598173   -2.073250465118    0.506218697513
 H    0.961837514929   -0.332176740345   -1.586882119994
 H    0.805114003270    3.130476918404   -2.161375681785
 C    1.106344721081    2.101245584379   -1.977631962361
 H    1.252641812531    1.592258631650   -2.934594791516
 H    2.035597892505    2.089928776696   -1.401500135331
 O    0.055359455527    1.499213252330   -1.236342093456
 H   -1.743477514027    0.255766188877   -1.806810935446
