10

 C   -0.126717180736   -0.663838596624    0.041428230033
 O   -1.116978736528   -0.632715319325   -0.726729855534
 O    0.227707948302    0.924037183528   -0.083522816671
 H   -0.612539684455    0.826122895521   -0.666290789595
 H    1.364796257541    2.315185029913   -1.048900858467
 C    1.409486998588    1.257737432052   -0.813374033410
 H    1.471207902284    0.667151218940   -1.730655893921
 H    2.267371759920    1.059726244389   -0.171440318982
 F   -0.343228843008   -0.816497868478    1.372363692615
 H    0.818986704613   -1.171411396800   -0.202270819444
