10

 C   -0.124390491753   -0.661465976084    0.042598465192
 O   -1.117294210645   -0.630996217279   -0.727248353840
 O    0.227093713319    0.922242314763   -0.083774794402
 H   -0.621105565673    0.807085021435   -0.668570163213
 H    1.363385032697    2.314883181198   -1.048136604595
 C    1.409290684655    1.257328550397   -0.813112722574
 H    1.471484439508    0.667616738731   -1.730943843777
 H    2.267991014094    1.059965776491   -0.171924214809
 F   -0.343289778312   -0.816597897916    1.372235699766
 H    0.818605851577   -1.173070511201   -0.202388233416
