10

 C   -0.128132812505   -0.665293467465    0.040716481475
 O   -1.116804471573   -0.633781222830   -0.726421644262
 O    0.228120161392    0.925165964012   -0.083348598548
 H   -0.607798242449    0.837491750647   -0.665056580290
 H    1.365694799778    2.315407316375   -1.049395170691
 C    1.409618506569    1.257988075249   -0.813527921897
 H    1.471041508215    0.666867736556   -1.730480878827
 H    2.267019217401    1.059592086269   -0.171184189166
 F   -0.343193467408   -0.816436058076    1.372439403690
 H    0.819180805029   -1.170409450279   -0.202218595479
