10

 C   -0.108622398634   -0.645778911520    0.050370127286
 O   -1.120177215002   -0.620298138953   -0.731031650757
 O    0.225466008570    0.911932130696   -0.083995767573
 H   -0.712532819724    0.665104467310   -0.698822447604
 H    1.355665955454    2.315441815468   -1.044609931090
 C    1.408518784489    1.254517383886   -0.811030761729
 H    1.473469911558    0.670556354386   -1.733180163937
 H    2.273014574507    1.062217415577   -0.177473280701
 F   -0.343781476128   -0.817243575685    1.371297614199
 H    0.813043220478   -1.184135518299   -0.203968212678
