10

 C   -0.131481802820   -0.668778302169    0.039037584218
 O   -1.116450479721   -0.636365726708   -0.725717800740
 O    0.229203046656    0.927954386146   -0.082878369310
 H   -0.597838687640    0.863764178797   -0.662470462761
 H    1.367952187673    2.316042909991   -1.050657278247
 C    1.409968671910    1.258589610507   -0.813878795395
 H    1.470652609595    0.666196077092   -1.730065957320
 H    2.266268077634    1.059307185039   -0.170689894644
 F   -0.343115346103   -0.816287248169    1.372611207894
 H    0.819533456924   -1.168071489327   -0.202155738454
