10

 C   -0.109750801749   -0.646869188598    0.049821052545
 O   -1.119927326561   -0.620995251074   -0.730748409687
 O    0.225419726778    0.912549978904   -0.084087358155
 H   -0.703952466230    0.675741879878   -0.695601106220
 H    1.356083382506    2.315251506368   -1.044717779117
 C    1.408542222415    1.254726538617   -0.811181308239
 H    1.473340335447    0.670402058553   -1.732963077148
 H    2.272602432494    1.062036706424   -0.176933419586
 F   -0.343740947181   -0.817194923520    1.371364167191
 H    0.813748397091   -1.183415404930   -0.203804599300
