10

 C   -0.122110016271   -0.659159213431    0.043743161285
 O   -1.117636073318   -0.629350025540   -0.727769432257
 O    0.226572653821    0.920552964143   -0.083977089829
 H   -0.630524533863    0.788000327876   -0.671180230000
 H    1.362076244815    2.314679797655   -1.047447091884
 C    1.409121564001    1.256929159621   -0.812844615459
 H    1.471760297355    0.668069949863   -1.731229866058
 H    2.268635543779    1.060224835869   -0.172479850454
 F   -0.343352537971   -0.816694201653    1.372106816602
 H    0.818151956682   -1.174705080457   -0.202537996422
