10

 C   -0.124852259348   -0.661935112098    0.042366230875
 O   -1.117228928655   -0.631334285141   -0.727144425221
 O    0.227209195266    0.922592715811   -0.083728317550
 H   -0.619324897257    0.810899196430   -0.668089613471
 H    1.363658858759    2.314935816810   -1.048283420672
 C    1.409327761981    1.257409542452   -0.813165477616
 H    1.471429186875    0.667524535002   -1.730886389497
 H    2.267864132296    1.059916345511   -0.171821952986
 F   -0.343277410143   -0.816578206165    1.372261511287
 H    0.818688199904   -1.172741067186   -0.202361977938
