10

 C   -0.112798832593   -0.649866559234    0.048348984886
 O   -1.119301889872   -0.622970977920   -0.729995064482
 O    0.225407807043    0.914333814569   -0.084241969851
 H   -0.681814667750    0.704976895011   -0.687561375148
 H    1.357390563199    2.314825601129   -1.045214522282
 C    1.408635463003    1.255281641073   -0.811619914151
 H    1.472942466684    0.669872422206   -1.732478182041
 H    2.271568895427    1.061532043333   -0.175598385285
 F   -0.343638477784   -0.817073391920    1.371551005920
 H    0.815248406056   -1.181356073646   -0.203441866151
