10

 C   -0.112019668164   -0.649097696843    0.048726953477
 O   -1.119458134565   -0.622460108543   -0.730186818683
 O    0.225390980844    0.913864451481   -0.084215302851
 H   -0.687204995249    0.697600346466   -0.689474375508
 H    1.357043795518    2.314918669364   -1.045073672982
 C    1.408608521398    1.255140682886   -0.811508304650
 H    1.473045057796    0.670014356096   -1.732594961717
 H    2.271827590525    1.061659059685   -0.175925155315
 F   -0.343664326561   -0.817104288762    1.371503095223
 H    0.814901659946   -1.181894193179   -0.203532274679
