10

 C   -0.109007418076   -0.646144418733    0.050181611122
 O   -1.120089121902   -0.620528381163   -0.730934576334
 O    0.225450996385    0.912138220580   -0.084028341547
 H   -0.709673717952    0.668604751697   -0.697745948180
 H    1.355797660671    2.315356555812   -1.044630000769
 C    1.408524654173    1.254590160629   -0.811079888771
 H    1.473429116920    0.670513392327   -1.733097132371
 H    2.272877447087    1.062156803975   -0.177280356040
 F   -0.343767286010   -0.817226295344    1.371319658259
 H    0.813317463194   -1.183903912767   -0.203910240881
