10

 C   -0.116871342417   -0.653908350525    0.046352984321
 O   -1.118524494306   -0.625697132824   -0.729004775270
 O    0.225709330001    0.916919665824   -0.084250150273
 H   -0.656586068805    0.742378099853   -0.679059828973
 H    1.359318910081    2.314536185494   -1.046069641212
 C    1.408809665235    1.256010106258   -0.812182321043
 H    1.472414531108    0.669101305628   -1.731906251013
 H    2.270250269290    1.060909228667   -0.174054770466
 F   -0.343507529289   -0.816910161291    1.371798815115
 H    0.816762786426   -1.178473047916   -0.202999524099
