10

 C   -0.129560884331   -0.666771422670    0.039999298933
 O   -1.116643329751   -0.634872489740   -0.726117084565
 O    0.228564076018    0.926334228409   -0.083157568304
 H   -0.603346328153    0.848802397329   -0.663905347357
 H    1.366633922454    2.315661687052   -1.049917535920
 C    1.409761085408    1.258242824972   -0.813679596116
 H    1.470874669697    0.666581091707   -1.730304500501
 H    2.266683034487    1.059465251364   -0.170954837524
 F   -0.343159147667   -0.816372987348    1.372514081975
 H    0.819349291550   -1.169407435397   -0.202180989020
