10

 C   -0.112407766788   -0.649480424743    0.048538904744
 O   -1.119379929235   -0.622714037934   -0.730091173955
 O    0.225397554758    0.914097123414   -0.084229739753
 H   -0.684495647914    0.701283119650   -0.688509158555
 H    1.357215565271    2.314870610660   -1.045142734187
 C    1.408621622103    1.255210961667   -0.811564014718
 H    1.472994044309    0.669944026101   -1.732536448634
 H    2.271698713064    1.061595492383   -0.175761015491
 F   -0.343651444269   -0.817088931988    1.371526951806
 H    0.815077118928   -1.181626849870   -0.203487234115
