10

 C   -0.131964608039   -0.669286441012    0.038796609133
 O   -1.116406524195   -0.636745736321   -0.725619460471
 O    0.229370841082    0.928370686013   -0.082804344636
 H   -0.596534879783    0.867479975422   -0.662126363976
 H    1.368293813550    2.316144729673   -1.050849892372
 C    1.410023837360    1.258677729448   -0.813928035612
 H    1.470596967983    0.666098995711   -1.730006135929
 H    2.266170334646    1.059269721960   -0.170631316776
 F   -0.343104758748   -0.816265538621    1.372635010099
 H    0.819573034742   -1.167738653247   -0.202154328069
