10

 C   -0.129083710373   -0.666276190220    0.040238841741
 O   -1.116695525105   -0.634506000282   -0.726218189537
 O    0.228412766659    0.925940399584   -0.083223030401
 H   -0.604799602623    0.845039537547   -0.664280863394
 H    1.366316346310    2.315574201046   -1.049740487222
 C    1.409712311990    1.258157388184   -0.813629247658
 H    1.470930302585    0.666676931273   -1.730363421368
 H    2.266792925713    1.059506810213   -0.171028567827
 F   -0.343170409265   -0.816394143468    1.372489340541
 H    0.819295784871   -1.169741147374   -0.202191617746
