10

 C   -0.109379131163   -0.646507292705    0.049999772837
 O   -1.120006995958   -0.620760496497   -0.730840959119
 O    0.225434668877    0.912343085087   -0.084058865638
 H   -0.706810506987    0.672155786748   -0.696670379776
 H    1.355936176596    2.315318179442   -1.044672723919
 C    1.408533538979    1.254657554619   -0.811128924879
 H    1.473385990916    0.670457559860   -1.733030967000
 H    2.272732316275    1.062098291877   -0.177108534016
 F   -0.343753909577   -0.817210285046    1.371341820143
 H    0.813527700632   -1.183653315390   -0.203851196675
