10

 C   -0.120767129727   -0.657807763632    0.044415185754
 O   -1.117850567944   -0.628397096010   -0.728081259876
 O    0.226304682508    0.919588923104   -0.084074204779
 H   -0.636583592774    0.776552169532   -0.672922779525
 H    1.361337319283    2.314607439331   -1.047068442838
 C    1.409032174014    1.256693458966   -0.812680826606
 H    1.471925593031    0.668336004739   -1.731400091595
 H    2.269030478921    1.060388867629   -0.172845172390
 F   -0.343390716902   -0.816750125098    1.372029375973
 H    0.817841333106   -1.175669129642   -0.202640394063
