10

 C   -0.115209717700   -0.652253379385    0.047172021115
 O   -1.118833825633   -0.624573097065   -0.729406450061
 O    0.225545280098    0.915838628119   -0.084271768938
 H   -0.666323756558    0.727330082763   -0.682251075452
 H    1.358510931990    2.314581867014   -1.045691069813
 C    1.408730351623    1.255717057262   -0.811959063052
 H    1.472627404069    0.669422277333   -1.732131515704
 H    2.270797305458    1.061151400156   -0.174640287890
 F   -0.343560063878   -0.816977253789    1.371698457594
 H    0.816211463525   -1.179667685916   -0.203176689010
