10

 C   -0.119445919956   -0.656481947250    0.045074738937
 O   -1.118070883297   -0.627470959047   -0.728391533942
 O    0.226071540425    0.918662643162   -0.084151989884
 H   -0.642953627681    0.765127463217   -0.674816527792
 H    1.360633099633    2.314548581935   -1.046710795704
 C    1.408950398055    1.256462830445   -0.812516163238
 H    1.472089469037    0.668596558099   -1.731569778536
 H    2.269437931464    1.060556797259   -0.173226173956
 F   -0.343429312199   -0.816804756750    1.371952193472
 H    0.817510787493   -1.176622138478   -0.202753669851
