13

 C    0.024483478318    0.024456708741   -1.607574784721
 O   -0.939975183450    0.061452666610   -2.304369240334
BR    1.556657950617    0.454166127953    0.826351676590
BR   -1.606823398463    0.637001549832    0.702997763108
 C   -0.045639960629   -0.167357957815   -0.075920848853
BR   -0.113272484316   -2.118394028958   -0.026188402961
 H    1.062103540204   -0.020747445038   -1.981645400941
 H    1.486473076883    3.729165300605   -2.564839540760
 C    1.430637066192    2.676515727285   -2.277251736788
 H    1.394670527897    2.059465329139   -3.182119752728
 H    2.324593076197    2.421754787883   -1.708307704912
 O    0.325101925039    2.425435457228   -1.426554973290
 H   -0.493695005904    2.611898159613   -1.896589286448
