13

 C   -0.145928973153   -0.976341774396    0.060389329960
 O   -1.113374923990   -0.912828243012   -0.660245928453
 H    0.715661264257   -0.635329448523    2.000975654240
 H   -1.063914230714   -0.464899054887    1.925750891354
 C   -0.202800179318   -1.023227928826    1.561475468673
 H   -0.314481148075   -2.072541967415    1.852954447110
 H    0.863261596248   -1.125408296986   -0.373724663140
 H    1.211707720156    2.512090235735   -1.234601640698
 C    1.254781017851    1.484842241675   -0.864293682357
 H    1.293985149609    0.796552114181   -1.716222427478
 H    2.161662589127    1.367179898898   -0.271652860210
 O    0.167847845682    1.198851933791   -0.012752004759
 H   -0.649886395400    1.211724687477   -0.522783315750
