13

 C   -0.056252417033   -0.393436353016   -0.830393380053
 O   -1.082036290458   -0.512717972495   -1.472094048800
 F    1.057798510178   -0.023398836299    1.280653352424
 F   -1.099505388835    0.081295371942    1.276867787738
 C   -0.058277944604   -0.509888216617    0.708213888594
 F   -0.103807016184   -1.818926609412    0.979628110836
 H    0.950197082222   -0.629879049199   -1.230720535612
 H    1.085916966373    2.951208581752   -1.870838008189
 C    1.235553526604    1.900350601088   -1.626369740586
 H    1.395181446988    1.318467289052   -2.538220070567
 H    2.090691611093    1.800606650524   -0.961711757913
 O    0.109984947023    1.419964257929   -0.910615183445
 H   -0.699590600643    1.486513360667   -1.441935776547
