13

 C    0.041381142379   -0.205248927615   -0.792246632539
 O   -1.099677288371   -0.417395362156   -1.498592691541
 F    1.062273803592   -0.025355532977    1.295238589289
 F   -1.097650811656    0.079871790503    1.275291742768
 C   -0.047604372958   -0.501663841799    0.712346088355
 F   -0.105103184766   -1.813950586252    0.967518853085
 H    0.939532538751   -0.688836120112   -1.196710943105
 H    0.954535192257    2.894981363443   -1.804325311005
 C    1.211525411920    1.855183079474   -1.604130152026
 H    1.403840423565    1.338481639207   -2.550167816295
 H    2.100995625214    1.818428232740   -0.972240913570
 O    0.102601082829    1.275231938662   -0.921850041535
 H   -1.277730146497    0.517108717966   -1.706298840734
