13

 C   -0.186293042832   -1.123135679792    0.065203892713
 O   -1.139502742070   -0.999294771159   -0.659778739983
 H    0.645633749096   -0.553184721136    1.946363110730
 H   -1.142104831983   -0.556697964528    1.890924106279
 C   -0.236913192316   -1.065208348977    1.562961947947
 H   -0.237053264386   -2.089780278858    1.949147252796
 H    0.813888313785   -1.328810501072   -0.368264741615
 H    1.300144836148    2.532312783921   -1.355140988751
 C    1.288088290452    1.536431066582   -0.902872790041
 H    1.243823522747    0.784099535496   -1.698135203125
 H    2.213501954643    1.400574736348   -0.343223596593
 O    0.224015635252    1.390890430399    0.017619113026
 H   -0.606392006325    1.358795081163   -0.466070755352
