13

 C    0.029908569546    0.094579869605   -1.617355198182
 O   -0.943984210676    0.081696509893   -2.314693406054
BR    1.574238931821    0.458206844029    0.871277490983
BR   -1.602050440482    0.642497392894    0.719804258573
 C   -0.032112263584   -0.128915821708   -0.079211965851
BR   -0.112582160504   -2.067205249534   -0.074739438884
 H    1.064314572316   -0.020944497213   -1.987705461294
 H    1.319996863166    3.626764575929   -2.473687018384
 C    1.381664399888    2.561973764437   -2.243731082550
 H    1.483730906814    1.992022065183   -3.173323582969
 H    2.249822864488    2.384154070848   -1.610901412015
 O    0.251320010584    2.143663010324   -1.501451909942
 H   -0.556174437058    2.286218115274   -2.011015162623
