13

 C   -0.033540392938   -0.321088947352   -1.205780150995
 O   -1.019895494190   -0.460842815851   -1.860044212113
CL    1.403846484868    0.374571557506    1.071183994060
CL   -1.493442053457    0.319512514907    1.050651493993
 C   -0.039954129176   -0.372793766841    0.345839756450
CL    0.029339301589   -2.138131991387    0.588214932271
 H    0.994963146225   -0.355924023225   -1.605325155305
 H    1.058577996427    3.305433980787   -2.382981282511
 C    1.154060700104    2.270412784777   -2.048998997628
 H    1.265045975824    1.617556412665   -2.921818110498
 H    2.039645659750    2.182922927305   -1.420776773786
 O    0.051525135829    1.886684170984   -1.246915924772
 H   -0.764876349477    1.954028842364   -1.754697629843
