13

 C   -0.036140375640   -0.341046121269   -0.821763130734
 O   -1.075402866537   -0.469637977454   -1.476302544499
 F    1.061640015056   -0.023332623485    1.291073641585
 F   -1.098226134010    0.081233896379    1.277414174550
 C   -0.054033552876   -0.506645218484    0.710884343837
 F   -0.103798939927   -1.815344131910    0.972085542851
 H    0.962533015309   -0.633686015348   -1.208641872497
 H    1.024690916013    2.929245456793   -1.841278672924
 C    1.219393142347    1.881936166862   -1.620310617337
 H    1.397758716740    1.319969273388   -2.540039492367
 H    2.069832736678    1.798157414954   -0.948180410755
 O    0.095932880976    1.355060137019   -0.924990691428
 H   -0.708951739227    1.348815387869   -1.481592069489
