13

 C    0.022654600378    0.041261518376   -1.614013218256
 O   -0.946989933993    0.051228565734   -2.308459117049
BR    1.566065081322    0.456902711180    0.854966649445
BR   -1.603093997720    0.642176543030    0.714919080683
 C   -0.038572448413   -0.143204046834   -0.077256725687
BR   -0.112104754120   -2.086469692736   -0.059550169733
 H    1.058539509053   -0.031294524738   -1.988658218081
 H    1.410633639665    3.667692429100   -2.526068107940
 C    1.407900461978    2.608706665363   -2.259382889863
 H    1.449296496779    2.006571742531   -3.173886207123
 H    2.286574011188    2.396659142216   -1.651064206316
 O    0.280804548975    2.279684408549   -1.467198734116
 H   -0.528296120422    2.437673794165   -1.965868905313
