13

 C   -0.035366283834   -0.339076977569   -1.204281351516
 O   -1.021506979130   -0.471837919272   -1.857894130542
CL    1.400764144948    0.372110071203    1.057760982025
CL   -1.495281706940    0.315332532956    1.044905635541
 C   -0.042478481837   -0.383508723730    0.346013117460
CL    0.029211764917   -2.148371876563    0.605014283283
 H    0.992115650826   -0.359567047243   -1.606987343384
 H    1.088641778511    3.323333514388   -2.398809048444
 C    1.162017708406    2.289200662329   -2.055696272439
 H    1.250627068652    1.627138863668   -2.924289964510
 H    2.052333867322    2.186807921802   -1.436210517921
 O    0.059469566462    1.936404583761   -1.238750394433
 H   -0.758610224029    2.015501777768   -1.740969114807
