13

 C   -0.000535082769   -0.500470391708    0.077152468202
 O   -1.112316077630   -0.844572453203   -0.720172361991
 H    0.709308025021   -0.728737498431    2.094341293010
 H   -1.032169183637   -0.411760911757    1.952568377140
 C   -0.187530360557   -0.945427837535    1.511769969609
 H   -0.390393142379   -2.016341513949    1.540188806558
 H    0.862880406613   -1.002613945354   -0.374278600824
 H    1.017606640848    2.421513784484   -0.981657947906
 C    1.196843225436    1.360645379880   -0.813289730105
 H    1.174383485142    0.838535596509   -1.774960389931
 H    2.182233288996    1.234120962773   -0.352689185897
 O    0.177954382186    0.892889332631    0.049802694594
 H   -1.706195595822   -0.086449341322   -0.699585027408
