13

 C   -0.023729416598   -0.319125704898   -0.815517043102
 O   -1.075125508415   -0.451386592966   -1.479122638194
 F    1.062563187455   -0.023452259398    1.293448499213
 F   -1.097819386744    0.080996472063    1.276946086754
 C   -0.052481773410   -0.506155560442    0.712077684685
 F   -0.104004524556   -1.814612278550    0.970431234672
 H    0.966778150906   -0.640145638064   -1.199725659488
 H    1.003248141856    2.919999907403   -1.830725157800
 C    1.214251790077    1.875938077138   -1.618557326308
 H    1.398210401720    1.321585154637   -2.541461112232
 H    2.064580416673    1.797481767823   -0.944483267902
 O    0.089575720296    1.330880045625   -0.929797117713
 H   -0.716692042713    1.255193331034   -1.496514178407
