13

 C   -0.132208374500   -0.926367547106    0.061196502228
 O   -1.105127543434   -0.886467837436   -0.660117674384
 H    0.722301879890   -0.653926789183    2.024209980592
 H   -1.055358757722   -0.460357337433    1.938088765005
 C   -0.196297433745   -1.013992917681    1.561599136649
 H   -0.324552963563   -2.071583457892    1.813144236733
 H    0.877363038305   -1.084851497648   -0.369249867497
 H    1.172871046091    2.503037617341   -1.202773932063
 C    1.243169791760    1.469999173191   -0.855175875730
 H    1.305543112987    0.799732786634   -1.719785019225
 H    2.146282925096    1.364592347076   -0.255009180344
 O    0.155314403191    1.141366370110   -0.022365741290
 H   -0.660973837864    1.158442960729   -0.537034924447
