13

 C    0.032697764092   -0.113799561510   -0.807421863785
 O   -1.112008314828   -0.487116204401   -1.496487423887
 F    1.063016807609   -0.026481871586    1.299039355975
 F   -1.101050774217    0.081994660253    1.276778367034
 C   -0.045600338234   -0.481216033756    0.696059932393
 F   -0.106357248540   -1.797076286147    0.938331121141
 H    0.906252596666   -0.629934969927   -1.224698571608
 H    0.964739953524    2.871071706420   -1.779700886779
 C    1.226036142832    1.831315956056   -1.593147342990
 H    1.380170151781    1.320686453327   -2.548399566109
 H    2.139433201042    1.789839170661   -0.994629285106
 O    0.134478822126    1.270152762298   -0.882216681226
 H   -1.599163506131    0.330592163927   -1.650360104401
