13

 C    0.001056171075   -0.646847918132    0.102010905179
 O   -1.113231167247   -0.763235417293   -0.683365465929
 H    0.711979226968   -0.719557552989    2.118992348149
 H   -1.044167039933   -0.456402071384    1.949002866406
 C   -0.181743499747   -0.997770597459    1.559308435134
 H   -0.354978002103   -2.070083707408    1.672937776946
 H    0.898195991366   -1.092630060499   -0.344649585462
 H    0.984092513407    2.445119584356   -1.074265129325
 C    1.205229072381    1.407330914394   -0.818544856769
 H    1.329579003700    0.833353616207   -1.744951582332
 H    2.138912769742    1.377256847859   -0.249393526099
 O    0.126874037885    0.909421354943   -0.040830705035
 H   -1.208454060059    0.188209245063   -0.868925793416
