13

 C   -0.056275240810   -0.748166228422    0.083244382500
 O   -1.090167371769   -0.780582484434   -0.665812662626
 H    0.717138701584   -0.713441814036    2.113852150143
 H   -1.048714363493   -0.463889023718    1.949640294669
 C   -0.181292328981   -0.997774139394    1.563791475119
 H   -0.350393457725   -2.070225593841    1.689390012411
 H    0.921792265848   -1.053455597043   -0.338746658872
 H    1.022401904580    2.459423554556   -1.100470588833
 C    1.206382243412    1.423362430389   -0.831064985893
 H    1.325661717022    0.817704447205   -1.733725206520
 H    2.105577345781    1.362669417883   -0.217937641508
 O    0.111572557353    0.955482535121   -0.055929650550
 H   -0.697964605125    0.726304120816   -0.623053476414
