13

 C    0.122016262273    0.307183804708   -1.559676781173
 O   -0.936356252649    0.232600200975   -2.324324028009
BR    1.580250071959    0.458220783535    0.882795998826
BR   -1.600494894565    0.641613261423    0.721265277079
 C   -0.017041956447   -0.116542823629   -0.076293819531
BR   -0.113729495016   -2.055950060436   -0.083489752254
 H    1.087933256857   -0.051850199720   -1.938800309808
 H    1.098453524429    3.545433551978   -2.363279530649
 C    1.328425401114    2.486697824991   -2.219445319011
 H    1.513588064680    2.006632710657   -3.181411589182
 H    2.192552931784    2.380616232779   -1.566542551673
 O    0.198596286026    1.887848661887   -1.573048186175
 H   -0.760048044597    1.456722850205   -2.259319192644
