13

 C    0.055995351723    0.105662012679   -1.182984300334
 O   -1.039415776305   -0.342029497284   -1.899026599799
CL    1.423591470848    0.379506143197    1.120865254011
CL   -1.488956076314    0.326207272697    1.062733210304
 C   -0.015753395140   -0.315298591240    0.328052872301
CL    0.025080029790   -2.090766615624    0.528497625584
 H    0.974365602929   -0.343048529303   -1.580092842673
 H    0.756979409426    3.136366065072   -2.189149549742
 C    1.100116406813    2.124437716575   -1.982788296521
 H    1.297020485236    1.610096644955   -2.928088589323
 H    2.011973360105    2.163939557401   -1.381643194843
 O    0.053954830915    1.492016022102   -1.262591801000
 H   -1.580642379788    0.439984975488   -2.058138146460
