13

 C    0.062240162699    0.092329546070   -1.177714759518
 O   -1.040167637375   -0.319113915194   -1.898954934508
CL    1.423516374541    0.379756062646    1.120391413779
CL   -1.488320519454    0.325496013858    1.062495073454
 C   -0.016703332243   -0.322208181857    0.334730275029
CL    0.025484145498   -2.096277895552    0.533907927780
 H    0.982870438832   -0.357718963101   -1.569664300083
 H    0.744262983479    3.140281415188   -2.194728692311
 C    1.094996921227    2.131340732670   -1.985637683541
 H    1.307752647058    1.620268424316   -2.929642567094
 H    2.000735464788    2.180140272501   -1.376182761909
 O    0.047834291694    1.487440838982   -1.276710103291
 H   -1.502411629836    0.499351833494   -2.115306132687
