13

 C   -0.041598706530   -0.729693723915    0.090123278657
 O   -1.094121109458   -0.768924756147   -0.670060881764
 H    0.715635796864   -0.715889465081    2.117224516609
 H   -1.048370877872   -0.462581269767    1.948040191254
 C   -0.180943507668   -0.997936501488    1.563525291744
 H   -0.352087148076   -2.070325973234    1.685228391256
 H    0.921618763629   -1.062562742272   -0.337448087947
 H    1.012205301442    2.456544383309   -1.094514973882
 C    1.205258236292    1.419834283189   -0.828818874057
 H    1.327007491824    0.820825426217   -1.735992041070
 H    2.109316797085    1.365054103913   -0.221962025382
 O    0.108778221900    0.941672878730   -0.057231704462
 H   -0.748250773431    0.592171024778   -0.639020731801
