13

 C   -0.049709195071   -0.373807001139   -0.827931819780
 O   -1.079109943003   -0.496817169554   -1.473570390568
 F    1.059431772588   -0.023332847940    1.285338740279
 F   -1.098968117429    0.081387730691    1.277430633396
 C   -0.056572983220   -0.508245051527    0.709170374740
 F   -0.103698006862   -1.817262595323    0.976113531779
 H    0.954875092968   -0.629949542210   -1.222880200006
 H    1.062252348691    2.942864019087   -1.859368831336
 C    1.229147014260    1.892945799788   -1.623825797369
 H    1.396728160741    1.318766885468   -2.538720570321
 H    2.082241690806    1.799733406508   -0.956007666232
 O    0.104842388260    1.394831844810   -0.916363673943
 H   -0.703427793457    1.442540763561   -1.455454876203
