13

 C   -0.022567604891   -0.226836990536   -1.209325459358
 O   -1.012597663398   -0.400520946733   -1.869476220704
CL    1.416722374600    0.380001588952    1.105496120601
CL   -1.490360184341    0.325361333324    1.061851569283
 C   -0.030731807674   -0.347045693131    0.346769054476
CL    0.028004803532   -2.110631766931    0.551634093107
 H    1.010027088065   -0.338396173479   -1.589609362880
 H    0.937955948534    3.247211883246   -2.314559400469
 C    1.122786231715    2.212083664696   -2.026580476360
 H    1.302500969288    1.604704813665   -2.919068370438
 H    1.990895547165    2.170537310877   -1.371563056083
 O    0.029249266344    1.712553554457   -1.277732213558
 H   -0.785779075786    1.746351836059   -1.797708750772
