13

 C    0.030492556929   -0.109419491497   -0.806889078984
 O   -1.110511518624   -0.497971632835   -1.495056589557
 F    1.062887248316   -0.025769463401    1.299577979103
 F   -1.101803254845    0.083565219213    1.277002036081
 C   -0.045298351224   -0.477209943205    0.694023405578
 F   -0.106850458745   -1.793363554749    0.928930701661
 H    0.903221946244   -0.625022018997   -1.225561164831
 H    0.976953412495    2.869236555985   -1.776602176411
 C    1.228835601745    1.826800154043   -1.592409371079
 H    1.372248018191    1.315570569683   -2.548888378288
 H    2.145106883278    1.775283301916   -0.998917677684
 O    0.136031979868    1.273882025424   -0.875645874738
 H   -1.639249512283    0.301175554476   -1.602856544419
