13

 C    0.024571377204    0.060209894510   -1.616438195159
 O   -0.946759948082    0.061669611184   -2.311569513422
BR    1.570166706561    0.457619828760    0.863528399653
BR   -1.602514203796    0.642530011744    0.717688954503
 C   -0.035662734439   -0.135784469904   -0.078407780869
BR   -0.112263310139   -2.076202995790   -0.067918934288
 H    1.059835550197   -0.028686645733   -1.989872510703
 H    1.371127543844    3.648223367927   -2.503237577734
 C    1.396289549556    2.586133888708   -2.252031292848
 H    1.466790844346    1.997426060200   -3.173289385876
 H    2.270182198944    2.390202445435   -1.631912933045
 O    0.266497983076    2.216942739354   -1.482783106237
 H   -0.541167597520    2.367225001956   -1.987497168658
