13

 C    0.003492708626   -0.283385438517   -0.802116571414
 O   -1.081442130308   -0.424263943061   -1.487021153434
 F    1.062900189463   -0.023905505888    1.294982258202
 F   -1.097456234021    0.080580408716    1.276069204668
 C   -0.050271118769   -0.505512509951    0.713572709869
 F   -0.104397290421   -1.814277084691    0.969148155752
 H    0.966977330683   -0.659025057538   -1.191400369059
 H    0.979231514195    2.910032161421   -1.819215263304
 C    1.210493716711    1.868445930984   -1.615086043978
 H    1.400245652436    1.326618762900   -2.544252930551
 H    2.067435641010    1.801220576628   -0.946965340552
 O    0.082316467973    1.300827754444   -0.934697265986
 H   -0.793804981166    0.987829956109   -1.514837019954
