13

 C   -0.170930060918   -1.070226565925    0.061887128443
 O   -1.130406426938   -0.967879450668   -0.659393208817
 H    0.683572298014   -0.591999617578    1.964312390037
 H   -1.101495338750   -0.503603264880    1.901080721161
 C   -0.221046502785   -1.047004228779    1.561752450721
 H   -0.278790719402   -2.080548672486    1.918500000518
 H    0.833672356397   -1.243596767368   -0.374794975975
 H    1.277283252259    2.526124492244   -1.304979972218
 C    1.276919638591    1.515817617223   -0.886463369425
 H    1.262525419847    0.789233099365   -1.706601093261
 H    2.193171659646    1.379363484649   -0.312134789907
 O    0.198978051263    1.319415416726    0.005941116517
 H   -0.624360272634    1.306820033724   -0.492054216104
