13

 C   -0.065508602312   -0.425651423650   -0.833055221983
 O   -1.087137240661   -0.538039704872   -1.469507937483
 F    1.054899507034   -0.023584486037    1.270937410920
 F   -1.100645523401    0.080724880675    1.274786933453
 C   -0.061404631925   -0.513866615511    0.706754954423
 F   -0.104321670583   -1.822509002295    0.987594470278
 H    0.942739322515   -0.631877079648   -1.242007873441
 H    1.124898741993    2.964981920213   -1.889756677066
 C    1.246401441267    1.913352423081   -1.630952251087
 H    1.390600664824    1.318713098796   -2.537756093891
 H    2.105387427233    1.801810194497   -0.972543257000
 O    0.118513141583    1.462987245862   -0.900694627099
 H   -0.691502970340    1.550281145926   -1.424016445587
