13

 C    0.139613287955    0.337061455711   -1.549528268344
 O   -0.944150389411    0.238299434966   -2.329876332144
BR    1.580171599945    0.458164884790    0.882722194150
BR   -1.600468527543    0.641624021218    0.721198659469
 C   -0.016471429732   -0.115788108891   -0.077709424679
BR   -0.113793057186   -2.055969559782   -0.083570823779
 H    1.077205433688   -0.068276839565   -1.944648588384
 H    1.089459589953    3.537677059775   -2.357987575378
 C    1.328201519601    2.481384237327   -2.215209873987
 H    1.516132817892    2.012118631040   -3.184505837721
 H    2.208024069182    2.388878925608   -1.576924169652
 O    0.207671066912    1.877825068790   -1.567219249709
 H   -0.983261758571    1.239383273154   -2.386745108407
