13

 C    0.008987943993   -0.547307214878    0.089804591469
 O   -1.128519747988   -0.799786001316   -0.688940863743
 H    0.708763923424   -0.730264297085    2.122466356541
 H   -1.041551543631   -0.455706856482    1.958078236048
 C   -0.180594369764   -0.980222682717    1.541233275024
 H   -0.357399928475   -2.055364522806    1.599082210802
 H    0.878031169313   -1.046799337275   -0.359006325091
 H    0.957831809514    2.424523366226   -1.040682220267
 C    1.205877092431    1.389000669866   -0.809029561000
 H    1.310941995297    0.831262834160   -1.746254500765
 H    2.156433880454    1.366507251157   -0.266940739773
 O    0.151756848357    0.877667838811   -0.010956218530
 H   -1.425998909867    0.079244065856   -0.946380489116
