13

 C   -0.012589484260   -0.174340804043   -1.206132179574
 O   -1.008086432619   -0.363480288395   -1.872475165866
CL    1.421053072829    0.381055010095    1.113855306539
CL   -1.489369425300    0.325670121151    1.063136998916
 C   -0.026758751771   -0.341383579000    0.348791507214
CL    0.027352929925   -2.104350041229    0.544242756269
 H    1.020316266273   -0.334718380784   -1.572963933316
 H    0.878038344466    3.221133752098   -2.282396788748
 C    1.107449925098    2.189681207590   -2.017690587210
 H    1.311252568137    1.604630377135   -2.918811547133
 H    1.967358859775    2.166650659842   -1.352184520521
 O    0.019982697104    1.640138983396   -1.292784380900
 H   -0.791424537144    1.643159986694   -1.825803906075
