13

 C    0.027722572605    0.081732533841   -1.617350470970
 O   -0.945186242443    0.074189382921   -2.313784338497
BR    1.572985562703    0.458041911850    0.868948578295
BR   -1.602192505272    0.642539937255    0.719218486750
 C   -0.033316740815   -0.131008981493   -0.079052846775
BR   -0.112468664065   -2.069849092608   -0.072772781890
 H    1.062478816701   -0.023601558467   -1.988956121282
 H    1.337599320907    3.633871873813   -2.483743682662
 C    1.386630446736    2.569810888537   -2.246434739086
 H    1.478474740291    1.993368508986   -3.173278371374
 H    2.256769609652    2.385996380032   -1.617800099526
 O    0.256249071374    2.167964470629   -1.495128481145
 H   -0.551159573018    2.313230846467   -2.003162385355
