13

 C    0.134255256706    0.468420232510   -1.560698505934
 O   -0.952706067431    0.133884044366   -2.351209008727
BR    1.579852135459    0.457260710403    0.882967405484
BR   -1.601361287670    0.643466522909    0.721253725871
 C   -0.008013605928   -0.088729885746   -0.102493679965
BR   -0.113398127669   -2.041485618085   -0.093014383903
 H    1.024867878867   -0.007165495790   -1.985584079603
 H    1.110149537393    3.494267538259   -2.294415863514
 C    1.339503785214    2.435166098200   -2.195892477961
 H    1.446917263644    1.994793278077   -3.191254071165
 H    2.266924715824    2.313265664376   -1.629695277330
 O    0.250436069082    1.851245554088   -1.493962308634
 H   -1.591710104831    0.850021734378   -2.259872531787
