13

 C    0.023265822803    0.048802033768   -1.615248867354
 O   -0.947141158631    0.055149647747   -2.309873159325
BR    1.567998126336    0.457250391240    0.859126451068
BR   -1.602795609536    0.642398740111    0.716310192846
 C   -0.037246222732   -0.139609357203   -0.077801951785
BR   -0.112156605162   -2.081476902194   -0.063717424764
 H    1.058853618213   -0.030816868235   -1.989485224181
 H    1.393049672632    3.658534237309   -2.516000729931
 C    1.402709629530    2.598087426791   -2.256004959762
 H    1.457673789819    2.001690237996   -3.173483687789
 H    2.279155929651    2.393530427950   -1.642088813453
 O    0.274043941362    2.251031395669   -1.474336606027
 H   -0.534225664365    2.405146721108   -1.976126184202
