13

 C    0.055782456850    0.199211319995   -1.605920678600
 O   -0.930639049333    0.149208077993   -2.315272930718
BR    1.579471425749    0.458560802725    0.880813820460
BR   -1.601123983328    0.641925379227    0.721411798913
 C   -0.023991028084   -0.119353577317   -0.076419410664
BR   -0.113296000319   -2.057457213470   -0.082037334270
 H    1.083363408847   -0.012429348149   -1.962037730716
 H    1.194324174655    3.579334678068   -2.407910177932
 C    1.348235382424    2.516014810536   -2.228800404110
 H    1.507597231887    1.991202681311   -3.174760810900
 H    2.202196597324    2.375908707349   -1.570089895747
 O    0.220629427554    1.993467029728   -1.545468089362
 H   -0.583629401294    2.087749046658   -2.082405517816
