13

 C   -0.161092807733   -1.033703440928    0.060734846663
 O   -1.123677996692   -0.945520673828   -0.659758705810
 H    0.700134474686   -0.611168545603    1.977385413987
 H   -1.082419730287   -0.481847017275    1.910227921714
 C   -0.212714886726   -1.036594739750    1.561525415719
 H   -0.296744597328   -2.075977727803    1.895143157632
 H    0.845830255106   -1.191818875983   -0.375896597946
 H    1.253692432610    2.521246022128   -1.275274536067
 C    1.268449403461    1.503227106070   -0.876834519233
 H    1.275982620215    0.792381551438   -1.710858968386
 H    2.180400353265    1.372706657395   -0.294449469350
 O    0.185211264986    1.270446504097   -0.001600233973
 H   -0.635073309922    1.269687353296   -0.505687230950
