13

 C   -0.177193871921   -1.092499305400    0.063014834469
 O   -1.134418120540   -0.981553523141   -0.659358979775
 H    0.669961964624   -0.577618630514    1.956755990116
 H   -1.116600336826   -0.522504034428    1.896265883160
 C   -0.227109508145   -1.054192254931    1.562082722324
 H   -0.263860260238   -2.084221914470    1.931643326361
 H    0.825668025155   -1.278256667750   -0.372882465682
 H    1.289137826642    2.528802553010   -1.324916203581
 C    1.281848619142    1.524047108472   -0.892983085747
 H    1.254367999065    0.787169169223   -1.703464959116
 H    2.201400874840    1.386031931555   -0.324288244804
 O    0.208708478647    1.349835538998    0.010732953808
 H   -0.617173129364    1.329415565180   -0.482109181668
