13

 C   -0.180799503374   -1.104865454751    0.063803786257
 O   -1.136557206419   -0.988935094250   -0.659455038051
 H    0.660969738150   -0.568439184047    1.952596057233
 H   -1.126262371272   -0.535174500714    1.893929416886
 C   -0.230855477687   -1.058489650688    1.562369195861
 H   -0.253923950219   -2.086465201398    1.938717563971
 H    0.821014643779   -1.298312773764   -0.371317847988
 H    1.294456797472    2.530222274234   -1.336717960763
 C    1.284466595471    1.528876127342   -0.896836609907
 H    1.249989244448    0.785951321490   -1.701456113370
 H    2.206173749124    1.391040004917   -0.331584134533
 O    0.214615868961    1.366623703680    0.013469193221
 H   -0.612958155598    1.341618241383   -0.475986080314
