13
Full IRC Point 0
 C    0.114282872525    0.298323095408   -1.564720955152
 O   -0.933682127475    0.226444095408   -2.322251955152
Br    1.580251872525    0.458194095408    0.882876044848
Br   -1.600513127475    0.641580095408    0.721349044848
 H    1.102962872525    3.543527095408   -2.364950955152
 C    1.328503872525    2.488957095408   -2.221024955152
 H    1.512594872525    2.004222095408   -3.183073955152
 H    2.188707872525    2.377883095408   -1.563589955152
 O    0.196626872525    1.892005095408   -1.574123955152
 H   -0.682114127475    1.574899095408   -2.216542955152
 C   -0.017197127475   -0.116679904592   -0.076066955152
Br   -0.113721127475   -2.055962904592   -0.083413955152
 H    1.092768872525   -0.045312904592   -1.939602955152
