13

 C   -0.140840751469   -0.957447498565    0.060587286864
 O   -1.110159610385   -0.902683127938   -0.660260800181
 H    0.718779452645   -0.642499346258    2.009525705700
 H   -1.060038770756   -0.462367600422    1.930657069229
 C   -0.200152322125   -1.019467576447    1.561498119177
 H   -0.318676627192   -2.072034519593    1.838028688044
 H    0.868689889165   -1.108126228929   -0.372254383834
 H    1.197193981762    2.508779561428   -1.222267770994
 C    1.250330759161    1.479115476130   -0.860689126909
 H    1.298780780926    0.797794133755   -1.717686272795
 H    2.155763373825    1.366041944510   -0.265100685832
 O    0.162910150532    1.176612352166   -0.016373772666
 H   -0.654283788180    1.192171024161   -0.528035712847
