13

 C   -0.000923628822   -0.499618230806    0.077883507752
 O   -1.105970130308   -0.843093335519   -0.727117444806
 H    0.705723865573   -0.726772798271    2.095860306357
 H   -1.033881456165   -0.406780563194    1.953520521911
 C   -0.190827075510   -0.943237183325    1.512807040006
 H   -0.395577361234   -2.013669399148    1.543032916381
 H    0.861976563266   -1.003775523923   -0.371911246973
 H    1.023708845264    2.423019396803   -0.972183551254
 C    1.192640144141    1.358400026329   -0.817433582850
 H    1.149726263219    0.846515593652   -1.783878153491
 H    2.183126030498    1.215426173505   -0.372556058495
 O    0.181461805102    0.893229533918    0.055650372222
 H   -1.739603821368   -0.124064896986   -0.642253230521
