13

 C    0.016976620400   -0.266795580688   -0.796395778259
 O   -1.086222353590   -0.413575040495   -1.491382118288
 F    1.062712824356   -0.024179493114    1.294970437994
 F   -1.097396316844    0.080446514706    1.275794530085
 C   -0.049447525119   -0.504987075744    0.713822874322
 F   -0.104550916631   -1.814372061520    0.968984084428
 H    0.960912553582   -0.670040769869   -1.190363453221
 H    0.971299467330    2.913049547483   -1.817078505968
 C    1.210679106813    1.864999752478   -1.612181327523
 H    1.401898330572    1.329791921199   -2.546149605588
 H    2.071980848736    1.806066322738   -0.955434084902
 O    0.085240177914    1.293202156963   -0.933176092484
 H   -0.923807754306    0.785916034515   -1.559763280504
