13

 C   -0.001091269619   -0.656272237136    0.102458797554
 O   -1.111575530502   -0.760833916870   -0.682636028832
 H    0.712391247656   -0.718975961532    2.118260727625
 H   -1.044602790933   -0.456737194737    1.948410594502
 C   -0.181722940436   -0.998315232521    1.560039577735
 H   -0.354805246441   -2.070513943567    1.676262760907
 H    0.900559835721   -1.093001147381   -0.343636413253
 H    0.986948521085    2.446974020191   -1.076903693959
 C    1.205137109661    1.408665444053   -0.819427803900
 H    1.330064095867    0.832604597145   -1.744491307828
 H    2.136551837134    1.376749160119   -0.247318690157
 O    0.124836037009    0.912815878283   -0.042900626412
 H   -1.179459304167    0.198987879950   -0.854087611933
