13

 C    0.026887400024   -0.099641034493   -0.802695943516
 O   -1.101675726743   -0.521171855738   -1.490802921414
 F    1.061743378675   -0.022847169103    1.303094986031
 F   -1.103803986763    0.089066294916    1.277685408805
 C   -0.043877765383   -0.466826914073    0.690316400165
 F   -0.109077775087   -1.784770876331    0.900123110891
 H    0.897491403098   -0.614589149528   -1.223904334596
 H    1.014667399546    2.864644357263   -1.759568398414
 C    1.233702745114    1.812197237293   -1.592053672124
 H    1.341706031765    1.308369945686   -2.556922292668
 H    2.158722791696    1.721659966967   -1.016386260180
 O    0.137396067393    1.282947118620   -0.861725473459
 H   -1.746861838158    0.193540943969   -1.430635902343
