13

 C    0.132540735204    0.466166864806   -1.558021361363
 O   -0.945442596831    0.120585931080   -2.353577042991
BR    1.580059424178    0.457148911605    0.883608347413
BR   -1.602058977670    0.644822897378    0.721385149308
 C   -0.005975208963   -0.088486849285   -0.101451797848
BR   -0.113081927480   -2.035513918246   -0.097610641512
 H    1.022794469310   -0.007058823617   -1.985210475313
 H    1.129164138181    3.489304843264   -2.267621481223
 C    1.336581423575    2.423704568804   -2.194772722627
 H    1.413616618750    2.001400658063   -3.200735528822
 H    2.272971699515    2.270304341534   -1.650794780816
 O    0.250569116656    1.848168789392   -1.482509545567
 H   -1.654205096142    0.746445297974   -2.158823193678
