13

 C    0.030988438479   -0.110418820102   -0.807103519267
 O   -1.110988047145   -0.495413909010   -1.495424310120
 F    1.062929349476   -0.025974105561    1.299429540796
 F   -1.101616771144    0.083144063080    1.276947570413
 C   -0.045377643419   -0.478190288122    0.694482895643
 F   -0.106713427827   -1.794250993348    0.931331937775
 H    0.903918355874   -0.626121938214   -1.225478214493
 H    0.973844924067    2.869686586211   -1.777487504935
 C    1.228192318210    1.827961968123   -1.592573680016
 H    1.374335505780    1.316758013447   -2.548680092871
 H    2.143752238729    1.779121791823   -0.997804011938
 O    0.135728699211    1.272984521051   -0.877190910028
 H   -1.629387114613    0.308714603365   -1.615421188287
