10

 C   -0.054467181889   -0.449259225534   -0.351910460791
 O   -1.109235549186   -0.411945716301   -1.099175648193
 O    0.288535544417    1.074569492883   -0.493093805910
 H   -0.764421447345    0.746637699591   -1.145429985313
 H    1.480743001209    2.476416167701   -1.381804094951
 C    1.508173852011    1.405612275149   -1.163628402678
 H    1.604534040405    0.835051489624   -2.091775881331
 H    2.338685340188    1.189803686906   -0.497263886077
CL   -0.281627341540   -0.753269785339    1.414695620215
 H    0.828248418483   -1.014899651463   -0.654174609916
