10

 C   -0.057109220457   -0.451591563235   -0.353177163019
 O   -1.108649053333   -0.413622417207   -1.098438702216
 O    0.287814154257    1.075627097139   -0.493630823821
 H   -0.733535642107    0.777540557412   -1.134532353007
 H    1.481706820303    2.475423718947   -1.382001300494
 C    1.508189523257    1.406160240752   -1.164142330411
 H    1.604131825577    0.834533508309   -2.091437406563
 H    2.337646448512    1.189125529434   -0.495581596196
CL   -0.281596862086   -0.753250774448    1.414837501286
 H    0.830194920824   -1.013201823201   -0.653790045370
