10

 C   -0.052971669501   -0.447898153190   -0.351206393719
 O   -1.109587680170   -0.411067119751   -1.099587475250
 O    0.288961794095    1.073973002347   -0.492774183410
 H   -0.781814030131    0.729851629567   -1.151700496828
 H    1.480191350526    2.476879621731   -1.381672954973
 C    1.508162450988    1.405301205562   -1.163336315642
 H    1.604762177141    0.835355600568   -2.091965432609
 H    2.339311185852    1.190186253570   -0.498219239293
CL   -0.281646025079   -0.753280286346    1.414612911204
 H    0.827139561508   -1.015878786128   -0.654418233886
