10

 C   -0.054170345370   -0.448991858469   -0.351770017764
 O   -1.109304077332   -0.411766665354   -1.099257747886
 O    0.288619533147    1.074451488633   -0.493031071925
 H   -0.767885246421    0.743253832490   -1.146671244107
 H    1.480633883145    2.476517155625   -1.381780013629
 C    1.508171855911    1.405550254372   -1.163570284114
 H    1.604579119385    0.835110954013   -2.091813640448
 H    2.338805580668    1.189880302697   -0.497455333406
CL   -0.281631017903   -0.753271928624    1.414679361405
 H    0.828027591176   -1.015092364613   -0.654220979488
