10

 C   -0.055057052403   -0.449787766778   -0.352191445070
 O   -1.109101162340   -0.412308781164   -1.099011738701
 O    0.288370022769    1.074804355652   -0.493217180093
 H   -0.757518764743    0.753441508782   -1.142969779754
 H    1.480958571079    2.476227483286   -1.381854245625
 C    1.508178524663    1.405733579366   -1.163742854859
 H    1.604444241553    0.834933556738   -2.091700549174
 H    2.338438512050    1.189654031104   -0.496892836477
CL   -0.281620162113   -0.753265489030    1.414727769815
 H    0.828679668549   -1.014512696270   -0.654081482896
