10

 C   -0.056230688993   -0.450824892333   -0.352753062612
 O   -1.108839820805   -0.413051524775   -1.098684394781
 O    0.288047339146    1.075272847093   -0.493457297341
 H   -0.743779148322    0.767166452871   -1.138115445709
 H    1.481386959006    2.475780938407   -1.381940297188
 C    1.508184982798    1.405978089820   -1.163971804736
 H    1.604265450376    0.834702541412   -2.091551428918
 H    2.337981345936    1.189350921715   -0.496139151673
CL   -0.281606643710   -0.753257043384    1.414790821952
 H    0.829549506151   -1.013759899084   -0.653911511971
