10

 C   -0.061036778699   -0.454982478219   -0.355098993140
 O   -1.107829992340   -0.416242750977   -1.097345930007
 O    0.286943893543    1.077304311551   -0.494297874155
 H   -0.690011571448    0.823042474027   -1.119677405394
 H    1.483160307885    2.473890015493   -1.382328367381
 C    1.508224755676    1.406949751778   -1.164882032299
 H    1.603552034989    0.833797385938   -2.090918275904
 H    2.336130270258    1.188174012159   -0.493267602650
CL   -0.281552553473   -0.753216884749    1.415041209792
 H    0.832933773704   -1.010715819398   -0.653285304031
