10

 C   -0.055937791956   -0.450567532122   -0.352612624208
 O   -1.108904371285   -0.412863841315   -1.098766226316
 O    0.288126870440    1.075155532044   -0.493398121377
 H   -0.747205438931    0.763722618100   -1.139320412057
 H    1.481280072581    2.475895742600   -1.381919369998
 C    1.508183543751    1.405917175622   -1.163914801232
 H    1.604309841725    0.834760035121   -2.091588241818
 H    2.338093274774    1.189426636243   -0.496327127735
CL   -0.281609936910   -0.753259143727    1.414775209747
 H    0.829332531535   -1.013947047166   -0.653952328381
