10

 C   -0.057696356629   -0.452101175832   -0.353462042653
 O   -1.108523492763   -0.414009358978   -1.098274339461
 O    0.287663544601    1.075866771858   -0.493743185006
 H   -0.726738635373    0.784488418565   -1.132172790510
 H    1.481920685590    2.475183673609   -1.382042689075
 C    1.508192931470    1.406280931722   -1.164255415189
 H    1.604043422961    0.834421718202   -2.091361087531
 H    2.337422113606    1.188976520088   -0.495215169261
CL   -0.281590419690   -0.753246511978    1.414868467067
 H    0.830621148270   -1.012828677792   -0.653712204204
