10

 C   -0.063019034395   -0.456695524609   -0.356068772243
 O   -1.107419324624   -0.417553727948   -1.096801943410
 O    0.286675487887    1.078245352644   -0.494534139241
 H   -0.670755761955    0.844206536646   -1.113359404966
 H    1.483908361881    2.473251472817   -1.382587004046
 C    1.508253377601    1.407321146500   -1.165239143309
 H    1.603262034413    0.833409382606   -2.090635443936
 H    2.335345827105    1.187758769301   -0.492269548879
CL   -0.281529445928   -0.753190813593    1.415135637615
 H    0.834206364008   -1.009496725637   -0.652986658681
