10

 C   -0.060720651418   -0.454709753408   -0.354943434615
 O   -1.107894779420   -0.416031189312   -1.097433075705
 O    0.286999113973    1.077161164184   -0.494253042007
 H   -0.693288717991    0.819517521521   -1.120769771086
 H    1.483040988495    2.474000323156   -1.382295026051
 C    1.508220591926    1.406888239075   -1.164824215001
 H    1.603597852727    0.833856619348   -2.090960932231
 H    2.336254852293    1.188245365213   -0.493439091279
CL   -0.281556222135   -0.753220267488    1.415025204184
 H    0.832724466060   -1.010915039912   -0.653325865193
