10

 C   -0.053273257071   -0.448175351206   -0.351347288987
 O   -1.109515271601   -0.411239416216   -1.099504906299
 O    0.288875390990    1.074093792008   -0.492839396747
 H   -0.778319795265    0.733180537363   -1.150433429696
 H    1.480303098661    2.476795197954   -1.381701454454
 C    1.508165037365    1.405363558700   -1.163394938629
 H    1.604716146310    0.835293625479   -2.091927066692
 H    2.339179812728    1.190109858899   -0.498029128905
CL   -0.281642242352   -0.753278256350    1.414629700244
 H    0.827361991319   -1.015679764295   -0.654367629481
