10

 C   -0.054762928963   -0.449524269669   -0.352050902325
 O   -1.109167945423   -0.412126366552   -1.099093665453
 O    0.288452259955    1.074687001209   -0.493155892815
 H   -0.760964305305    0.750033554479   -1.144194912161
 H    1.480851467197    2.476310993678   -1.381827194594
 C    1.508175731398    1.405674210006   -1.163686359511
 H    1.604488760290    0.834992428586   -2.091738148736
 H    2.338566962302    1.189727356064   -0.497073148207
CL   -0.281623729522   -0.753267642533    1.414711775649
 H    0.828469037282   -1.014708794546   -0.654129070526
