10

 C   -0.060097737874   -0.454172790405   -0.354636611486
 O   -1.108022816098   -0.415613665136   -1.097605497757
 O    0.287116909089    1.076884132993   -0.494159364638
 H   -0.699887260037    0.812478036399   -1.122985337114
 H    1.482807157499    2.474228119748   -1.382234552946
 C    1.508213040445    1.406765665989   -1.164709318430
 H    1.603688577444    0.833972178745   -2.091045142741
 H    2.336499387833    1.188388893408   -0.493785065202
CL   -0.281563415574   -0.753226529423    1.414993326139
 H    0.832306702423   -1.011308961806   -0.653406113318
