10

 C   -0.056816320040   -0.451336602175   -0.353035312017
 O   -1.108712296022   -0.413430852977   -1.098520723877
 O    0.287890982416    1.075508476599   -0.493573611761
 H   -0.736943833757    0.774075547112   -1.135720932352
 H    1.481600239025    2.475544380166   -1.381981162051
 C    1.508187894276    1.406099643883   -1.164085618265
 H    1.604176437181    0.834589374944   -2.091475873095
 H    2.337758608597    1.189200355039   -0.495766279694
CL   -0.281600082767   -0.753252866258    1.414821970414
 H    0.829980940788   -1.013387516497   -0.653830085461
