10

 C   -0.064131112464   -0.457650554845   -0.356576326006
 O   -1.107164181485   -0.418249061914   -1.096494528241
 O    0.286610400606    1.078817416433   -0.494619546188
 H   -0.661656562184    0.854622400625   -1.110266601549
 H    1.484257659255    2.472910438754   -1.382821585900
 C    1.508259733302    1.407496810565   -1.165441857313
 H    1.603075397650    0.833120985751   -2.090430612964
 H    2.334921906185    1.187580143372   -0.491809137956
CL   -0.281512739029   -0.753159521725    1.415164406409
 H    0.834938061896   -1.008954110874   -0.652574717885
