10

 C   -0.063369176095   -0.457000858404   -0.356238904960
 O   -1.107342320947   -0.417780359788   -1.096704497895
 O    0.286645235992    1.078421675283   -0.494566539556
 H   -0.667654335568    0.847702630002   -1.112338353031
 H    1.484029820747    2.473201312481   -1.382658089282
 C    1.508259557383    1.407377314682   -1.165299554858
 H    1.603207325062    0.833325257120   -2.090583023919
 H    2.335187367329    1.187698819939   -0.492128079822
CL   -0.281524951804   -0.753183841685    1.415149134606
 H    0.834394224601   -1.009275274675   -0.652886087637
