10

 C   -0.059485688109   -0.453645463530   -0.354336146607
 O   -1.108149095252   -0.415203209948   -1.097775341761
 O    0.287243349973    1.076617845540   -0.494061023596
 H   -0.706538414453    0.805454133384   -1.125237828106
 H    1.482579049242    2.474460022752   -1.382179967855
 C    1.508206730258    1.406643896358   -1.164595284187
 H    1.603777938346    0.834086358382   -2.091125847499
 H    2.336736289836    1.188534034100   -0.494136262931
CL   -0.281570415158   -0.753232195475    1.414961801978
 H    0.831887565003   -1.011696632392   -0.653483066377
