13

 C   -0.071790828295   -0.450634284297   -0.834278941940
 O   -1.091185563686   -0.557012215388   -1.467342216710
 F    1.052645085543   -0.023845050030    1.261666079409
 F   -1.101848797935    0.079793351532    1.272039182856
 C   -0.064073224392   -0.518180038437    0.705709983188
 F   -0.105043533646   -1.825993243127    0.995976865577
 H    0.937154208035   -0.634731847644   -1.249609502050
 H    1.154889777707    2.975674399041   -1.904132684360
 C    1.254921768152    1.924015856690   -1.634732506108
 H    1.385398167900    1.319827240071   -2.537752941614
 H    2.117210874607    1.802440888025   -0.981995637473
 O    0.125424371228    1.497963096442   -0.892755673986
 H   -0.684052031447    1.596725210211   -1.412379523640
