13

 C    0.023029462310    0.028082340994   -1.609732474063
 O   -0.943831732813    0.050504757802   -2.305095184104
BR    1.559955952345    0.455504433246    0.839141360347
BR   -1.604727957659    0.640174224402    0.708909841777
 C   -0.042802396234   -0.156761573538   -0.075940898791
BR   -0.112380636773   -2.104897507526   -0.042089728164
 H    1.059986747325   -0.025236659452   -1.984447353840
 H    1.459886390891    3.701075959778   -2.552387059189
 C    1.422507644537    2.646403306910   -2.270079541125
 H    1.418681176454    2.032025780110   -3.177441444160
 H    2.309310547039    2.409223649761   -1.682823444442
 O    0.305178943826    2.368427777249   -1.443924659459
 H   -0.508172650961    2.542068153646   -1.927969640185
