13

 C    0.031385633534   -0.072670776168   -1.178962329535
 O   -1.011991643215   -0.286879500097   -1.882968464953
CL    1.423848899712    0.381113086536    1.119479478595
CL   -1.487943093439    0.325323534610    1.062578398663
 C   -0.020001001341   -0.337382973378    0.350836045849
CL    0.026475710843   -2.100781247313    0.539273105193
 H    1.036307251141   -0.358368750153   -1.540971661885
 H    0.783216768075    3.176734227383   -2.231960271754
 C    1.086529719723    2.160013465499   -2.006368605153
 H    1.316131199023    1.613491159346   -2.924443181633
 H    1.943289829009    2.164603728881   -1.335370313392
 O    0.001707872968    1.529751250013   -1.314505929358
 H   -0.812425092981    1.221848820415   -1.894130075166
