13

 C    0.031960523405    0.105687839085   -1.617095642485
 O   -0.942834123102    0.088255607236   -2.315284897700
BR    1.575158784007    0.458317508515    0.872962896051
BR   -1.601940796292    0.642449472714    0.720195050370
 C   -0.031137872019   -0.127371243611   -0.079233537087
BR   -0.112674654203   -2.065336766293   -0.076116502099
 H    1.066019893867   -0.018981693705   -1.986254739901
 H    1.305573015415    3.621078102591   -2.465589358479
 C    1.377651958026    2.555859864751   -2.241636313038
 H    1.487665018180    1.991202849322   -3.173371299260
 H    2.244159225372    2.382809272399   -1.605453934966
 O    0.247448640948    2.124409281481   -1.506595365031
 H   -0.560168931236    2.264498334533   -2.017467315471
