13

 C    0.007767357934   -0.531919093503    0.086474634871
 O   -1.130797559785   -0.810248166919   -0.690029990640
 H    0.709352490477   -0.732423414507    2.118451523036
 H   -1.040807801843   -0.453883063208    1.957978928716
 C   -0.180317938150   -0.973665343963    1.534003054917
 H   -0.359033822582   -2.049043096755    1.577628580340
 H    0.875014488240   -1.033497992291   -0.363369648655
 H    0.958353489893    2.420607335735   -1.034137511007
 C    1.205921203804    1.384145784330   -0.807108813637
 H    1.301432156834    0.827642619526   -1.745799197471
 H    2.160151946648    1.357536631085   -0.271672910285
 O    0.157603253837    0.876614260076   -0.001640445038
 H   -1.463330064391    0.055732159787   -0.946411882572
