13

 C   -0.126473685965   -0.906622888355    0.061776967642
 O   -1.102075673319   -0.876217783636   -0.659951496451
 H    0.723689935866   -0.661052345999    2.033899476856
 H   -1.053242210478   -0.460055639951    1.942273127973
 C   -0.194093090297   -1.010911047352    1.561718191087
 H   -0.327841092672   -2.071394931758    1.797338456350
 H    0.882766689385   -1.073204153900   -0.366957224100
 H    1.156997649312    2.499218417163   -1.190678525019
 C    1.238706775396    1.464385407233   -0.851881200130
 H    1.309260769418    0.801029960179   -1.720995020888
 H    2.140356188107    1.363923052885   -0.248937114668
 O    0.150686056997    1.119541001637   -0.026223396001
 H   -0.664879988814    1.135381493213   -0.543324903418
