13

 C   -0.082320962197   -0.497999109818   -0.835587017000
 O   -1.099272522035   -0.591680717623   -1.463098401511
 F    1.048755208041   -0.024849333226    1.240038941852
 F   -1.105053358367    0.076525812380    1.263732597813
 C   -0.069477651182   -0.529613069425    0.703841630919
 F   -0.107197592647   -1.833944764282    1.018132906973
 H    0.926728657891   -0.643425394833   -1.262247413578
 H    1.211030929306    2.996679672834   -1.929707449551
 C    1.271233915703    1.946009768487   -1.642229387439
 H    1.372462519530    1.325852254196   -2.538907061800
 H    2.139882346424    1.803041085466   -1.001630975075
 O    0.139742831501    1.567976668711   -0.877360058180
 H   -0.668555337189    1.685475583150   -1.391367906641
