13

 C    0.002892306374   -0.508984105854    0.078373771148
 O   -1.130972812453   -0.836346928771   -0.696356754333
 H    0.712714688668   -0.732924396912    2.099919498969
 H   -1.035504382234   -0.437024458670    1.950790504236
 C   -0.180944450939   -0.957567091502    1.515204641255
 H   -0.370269182721   -2.031361003898    1.541111274171
 H    0.868698696227   -1.008051876004   -0.375259473901
 H    0.981709022847    2.416411477785   -1.018715403280
 C    1.205980869091    1.372141966144   -0.804987949557
 H    1.258897660034    0.818961292364   -1.748383689770
 H    2.172804758343    1.313486375533   -0.294908689471
 O    0.168978761651    0.885782068253    0.025594113035
 H   -1.560878795035    0.000045594224   -0.898675685803
