13

 C   -0.032595624774   -0.311495507766   -1.206543728171
 O   -1.019126633021   -0.454786430375   -1.861206842429
CL    1.405470543126    0.375572794271    1.076869100908
CL   -1.492795128814    0.320971106954    1.052902305334
 C   -0.038740124937   -0.368294844193    0.345769235991
CL    0.029278391719   -2.133610058192    0.581483843945
 H    0.996407721128   -0.353719023372   -1.604413049259
 H    1.043924148829    3.297619390579   -2.374722139522
 C    1.150200931632    2.262151047720   -2.045911869431
 H    1.271089762415    1.614432258926   -2.921135116831
 H    2.033643170394    2.181127836749   -1.413964898719
 O    0.048206358620    1.863402538117   -1.250761154151
 H   -0.767669553321    1.926261994017   -1.760516226292
