13

 C    0.150098734802    0.417162223740   -1.549331580300
 O   -0.956195410890    0.211436399950   -2.337319836233
BR    1.580058958153    0.457958820591    0.882732456132
BR   -1.600464345621    0.641679554595    0.721129408383
 C   -0.014856987227   -0.108817547607   -0.084464030957
BR   -0.113909795269   -2.055276955739   -0.084209760784
 H    1.052353576021   -0.055504744312   -1.957671865411
 H    1.068499345219    3.516986589314   -2.339880640526
 C    1.330685857805    2.468470566797   -2.207098711353
 H    1.510990463549    2.014868170375   -3.187093732258
 H    2.232136887089    2.395615662180   -1.593609512927
 O    0.228773111050    1.854034768256   -1.549645907748
 H   -1.256179281603    1.116290661961   -2.497166103462
