13

 C    0.039313783270   -0.131504479215   -0.804265446985
 O   -1.110929085611   -0.458302752277   -1.499053151328
 F    1.062920499122   -0.026844937358    1.297764189569
 F   -1.099390126472    0.079928226291    1.276097612404
 C   -0.046246802310   -0.490529888765    0.702585119067
 F   -0.105719098080   -1.806027419626    0.955577802799
 H    0.915336985655   -0.649404097026   -1.216152500885
 H    0.944936583673    2.876617024403   -1.785376324369
 C    1.218730436777    1.840434814736   -1.595779613013
 H    1.393656474028    1.332868108142   -2.549465605313
 H    2.125249515411    1.812715964704   -0.986392939007
 O    0.126370419488    1.262894362526   -0.899261457590
 H   -1.501798659269    0.395029525664   -1.721347837155
