13

 C    0.044760474929    0.162096009824   -1.612347636126
 O   -0.935830036191    0.123507891102   -2.316125398540
BR    1.578325942615    0.458576159521    0.878691268194
BR   -1.601444480947    0.642140066719    0.721230945782
 C   -0.026700264141   -0.121735158254   -0.077973222215
BR   -0.113078608512   -2.059400447533   -0.080509633371
 H    1.075948044272   -0.012950372486   -1.974049111873
 H    1.237586701706    3.595243741459   -2.429415534110
 C    1.359353502374    2.530104021463   -2.233126979891
 H    1.502150849426    1.989966334563   -3.173857291479
 H    2.217895397302    2.378047381396   -1.582187007313
 O    0.230606755671    2.040987870154   -1.530655316730
 H   -0.576806481620    2.161826310896   -2.051971908694
