13

 C    0.068716641035    0.232615746184   -1.596932067985
 O   -0.926632501330    0.174567628865   -2.314447532349
BR    1.580050926076    0.458474652918    0.881983272643
BR   -1.600847502836    0.641761192400    0.721395822042
 C   -0.021522295487   -0.117963346132   -0.075256447961
BR   -0.113464206908   -2.056498210259   -0.082869025381
 H    1.090062044985   -0.016021024393   -1.949625884887
 H    1.156171790087    3.565272685499   -2.389642585986
 C    1.338875231987    2.504864141531   -2.225766232640
 H    1.509892219397    1.993541892179   -3.176333167084
 H    2.189705449466    2.374142164491   -1.561733454053
 O    0.211484807775    1.953529829670   -1.557805541664
 H   -0.586241317643    1.999170443191   -2.119362298115
