10

 C   -0.074863192438   -0.466761430256   -0.362438912156
 O   -1.105320040651   -0.425405362034   -1.093775531154
 O    0.287158947187    1.084796322776   -0.494754655534
 H   -0.583797304032    0.957986710271   -1.090550038209
 H    1.489380570374    2.471926440448   -1.384361353304
 C    1.508768353666    1.409371725516   -1.166942219049
 H    1.601733644430    0.831589033673   -2.089060258149
 H    2.330887552755    1.185394504721   -0.487575968786
CL   -0.281476489805   -0.753201924449    1.415817093049
 H    0.839829543948   -1.001302134331   -0.652340345661
