10

 C   -0.065629363583   -0.458787426760   -0.357410320506
 O   -1.106898147654   -0.419155319708   -1.096122175828
 O    0.286506048652    1.079427977608   -0.494712921456
 H   -0.646365856751    0.872663367152   -1.105941569002
 H    1.484952123072    2.472591919475   -1.382901352641
 C    1.508302965910    1.407704455664   -1.165659940436
 H    1.602821970265    0.832931629292   -2.090132522145
 H    2.334150153093    1.187114153672   -0.491032999089
CL   -0.281551803146   -0.753230261351    1.415250515837
 H    0.836092141703   -1.007809670306   -0.652782643602
