10

 C   -0.070247966593   -0.462740776114   -0.359904694058
 O   -1.106065889847   -0.422226027334   -1.094932538442
 O    0.286604673039    1.081973540112   -0.494860445522
 H   -0.611925911663    0.916628787899   -1.096800520743
 H    1.487066045722    2.472101527620   -1.383503162832
 C    1.508512086529    1.408549587834   -1.166328622016
 H    1.602273857895    0.832319592536   -2.089555944691
 H    2.332456417015    1.186186279159   -0.489135801264
CL   -0.281514975714   -0.753224029596    1.415537276232
 H    0.838231483783   -1.004617569592   -0.652622620335
