10

 C   -0.065993295195   -0.459095742586   -0.357611857487
 O   -1.106829521979   -0.419394032989   -1.096026699205
 O    0.286493802696    1.079616612051   -0.494735087681
 H   -0.643374655061    0.876260282266   -1.105106685630
 H    1.485113203778    2.472589712490   -1.382938433758
 C    1.508322503695    1.407769305622   -1.165710583030
 H    1.602782922662    0.832891256841   -2.090092180870
 H    2.333993671445    1.187039020350   -0.490888033457
CL   -0.281549301199   -0.753231787358    1.415275423827
 H    0.836254428839   -1.007542230421   -0.652790824104
