10

 C   -0.072722952840   -0.464892192983   -0.361256374162
 O   -1.105653329454   -0.423916787704   -1.094307125255
 O    0.286850007460    1.083455523310   -0.494832347708
 H   -0.596134392694    0.939091380662   -1.093130183883
 H    1.488280224017    2.471967523915   -1.383938888991
 C    1.508641185498    1.408992661642   -1.166665578972
 H    1.601981336189    0.831933183394   -2.089283126194
 H    2.331597225994    1.185746076164   -0.488256083317
CL   -0.281494048672   -0.753213006253    1.415686892604
 H    0.839142196259   -1.002847633863   -0.652466439958
