10

 C   -0.067496414204   -0.460370215508   -0.358420857358
 O   -1.106553253710   -0.420382800377   -1.095637949840
 O    0.286484582629    1.080418126104   -0.494806566704
 H   -0.631601382573    0.890797200517   -1.101866772636
 H    1.485785344582    2.472378408633   -1.383101010993
 C    1.508387843781    1.408048160047   -1.165932932243
 H    1.602604100483    0.832715608765   -2.089887299066
 H    2.333440186444    1.186722797104   -0.490238154945
CL   -0.281537904881   -0.753232193406    1.415370331773
 H    0.837027039326   -1.006535379498   -0.652771187603
