10

 C   -0.071472611107   -0.463803597222   -0.360570905705
 O   -1.105858280900   -0.423058429407   -1.094621806233
 O    0.286710275080    1.082697310828   -0.494855400368
 H   -0.603898313268    0.927826558632   -1.094885869659
 H    1.487659429064    2.472021984659   -1.383711108178
 C    1.508573513170    1.408769680257   -1.166497696283
 H    1.602128388737    0.832130504722   -2.089418509958
 H    2.332028937260    1.185963572565   -0.488686881462
CL   -0.281504520356   -0.753218850004    1.415611178187
 H    0.838700028036   -1.003745436489   -0.652545891862
