10

 C   -0.072303345566   -0.464526550918   -0.361025871067
 O   -1.105721328960   -0.423627836113   -1.094412418328
 O    0.286799703293    1.083198997609   -0.494841997919
 H   -0.598693252944    0.935330169562   -1.093698399088
 H    1.488069996796    2.471981576883   -1.383860437568
 C    1.508617895052    1.408918096506   -1.166609775348
 H    1.602030601846    0.831999995774   -2.089327956408
 H    2.331741235039    1.185818017337   -0.488397641370
CL   -0.281497543595   -0.753215037441    1.415661465046
 H    0.838997962107   -1.003149177976   -0.652492790906
