10

 C   -0.071886534888   -0.464163658816   -0.360797519586
 O   -1.105789662667   -0.423341736587   -1.094517320515
 O    0.286753149844    1.082946271408   -0.494849636667
 H   -0.601281985988    0.931575576063   -1.094283821272
 H    1.487863172988    2.471999201261   -1.383784441975
 C    1.508595439479    1.408843805997   -1.166553822496
 H    1.602079447788    0.832065795907   -2.089372997879
 H    2.331884721239    1.185890438457   -0.488541138754
CL   -0.281501042352   -0.753216981205    1.415636251739
 H    0.838850408286   -1.003448975273   -0.652519047325
