10

 C   -0.071061394696   -0.463446393909   -0.360346884408
 O   -1.105927315544   -0.422778161882   -1.094725891591
 O    0.286671348774    1.082452238803   -0.494858923276
 H   -0.606546342275    0.924086852895   -1.095507022213
 H    1.487458508841    2.472046538721   -1.383639619609
 C    1.508552394464    1.408695954855   -1.166441529210
 H    1.602177456564    0.832194571631   -2.089464494999
 H    2.332172236311    1.186037004956   -0.488833814227
CL   -0.281508034346   -0.753220647984    1.415586392400
 H    0.838547128611   -1.004039300050   -0.652571642694
