13

 C   -0.030098385408   -0.286585482706   -1.208166114213
 O   -1.017239227585   -0.439162893123   -1.864026516261
CL    1.409334589175    0.377445326021    1.088330830189
CL   -1.491721758497    0.323297507888    1.057028327822
 C   -0.036000286894   -0.359445960732    0.345739089413
CL    0.028946331056   -2.124366394995    0.568696767688
 H    1.000118651703   -0.347817326602   -1.601543139385
 H    1.009758933073    3.280546931654   -2.355074267226
 C    1.141305419053    2.244385797555   -2.039126989187
 H    1.283383714640    1.609396381952   -2.920146314478
 H    2.019853187513    2.177220222033   -1.399196655024
 O    0.041397588161    1.811498148090   -1.259548798548
 H   -0.773846857382    1.865323574831   -1.772860478931
