13

 C   -0.151796061742   -0.998454035017    0.060339758501
 O   -1.117262966500   -0.925037117949   -0.660124680134
 H    0.710889444162   -0.626559472398    1.991444183323
 H   -1.069688928769   -0.469507491939    1.919793273791
 C   -0.206243475682   -1.028003882209    1.561472733000
 H   -0.308717549564   -2.073444443532    1.869879470781
 H    0.856741181005   -1.148574657862   -0.375011761852
 H    1.228337092406    2.515799989257   -1.249612176017
 C    1.260053916342    1.491753419390   -0.868808048429
 H    1.287651650659    0.795030264921   -1.714312843929
 H    2.168726306749    1.368874490147   -0.279839632111
 O    0.174041045212    1.225642695056   -0.008507158611
 H   -0.644453506531    1.234187520756   -0.516562920639
