13

 C    0.129368022364    0.316909683804   -1.555264507344
 O   -0.939224449400    0.237328434520   -2.326489578541
BR    1.580221741047    0.458203091333    0.882765880889
BR   -1.600485866900    0.641617134220    0.721240053339
 C   -0.016837536685   -0.116367154259   -0.076734926501
BR   -0.113751864894   -2.055963594080   -0.083515682175
 H    1.083079625551   -0.058174692035   -1.940209778146
 H    1.094577953925    3.546247173776   -2.362034914405
 C    1.328416381099    2.484509389454   -2.217981748691
 H    1.514430975721    2.009555024985   -3.180786141697
 H    2.197476377079    2.383734834449   -1.570848206549
 O    0.201725699915    1.884377160286   -1.571138295126
 H   -0.847830405151    1.346550739209   -2.309763095504
