13

 C    0.023763366264    0.025880765491   -1.608400232723
 O   -0.941823919514    0.055356865426   -2.304523722901
BR    1.558004393968    0.454810958203    0.832312205971
BR   -1.605759695623    0.638651910826    0.705884715949
 C   -0.044373695993   -0.162483331030   -0.075811607793
BR   -0.112773526046   -2.112311332024   -0.033793866164
 H    1.061116894878   -0.022184063824   -1.982790898433
 H    1.475298152835    3.715824775956   -2.559816767035
 C    1.427153079927    2.662411395731   -2.274042568995
 H    1.405775426169    2.045986492614   -3.179770069798
 H    2.317689586758    2.415533130953   -1.696341840445
 O    0.315675945205    2.400197813444   -1.434636091513
 H   -0.499615790755    2.580565315469   -1.911017443067
