13

 C    0.000656689098   -0.502691323072    0.076458664529
 O   -1.123152895557   -0.844549749236   -0.707472493587
 H    0.712911444840   -0.731502590029    2.093742045731
 H   -1.031831297958   -0.422148642783    1.949936675360
 C   -0.183289559634   -0.950154830300    1.510754381195
 H   -0.381356518452   -2.022156959539    1.536637476995
 H    0.865510381214   -1.001663218094   -0.377248696886
 H    1.003548827370    2.418655535247   -0.999967406591
 C    1.202804307537    1.365332388101   -0.807642848925
 H    1.216241164000    0.825752141689   -1.759985602565
 H    2.179382657241    1.270291851521   -0.321763910715
 O    0.173304920975    0.891305785344    0.039752237392
 H   -1.636636542308   -0.037268930500   -0.806354343065
