13

 C    0.028520011925   -0.105012672939   -0.805320330784
 O   -1.107331034210   -0.509195790732   -1.493251576828
 F    1.062569815273   -0.024577422549    1.300584733784
 F   -1.102697681108    0.085839294320    1.277286506409
 C   -0.044830895506   -0.472569409669    0.692147479940
 F   -0.107660343414   -1.789358622881    0.916774197150
 H    0.900284911712   -0.620338690902   -1.225153814200
 H    0.992594355394    2.867086914315   -1.770929042769
 C    1.231451368202    1.820777303779   -1.591831862249
 H    1.360803739951    1.310873072003   -2.550920511942
 H    2.151259762226    1.754513614661   -1.005059521611
 O    0.136952131888    1.277963029067   -0.868915869444
 H   -1.686855057974    0.260627936066   -1.534618534215
