13

 C    0.029607322945   -0.107555832669   -0.806340868114
 O   -1.109386596048   -0.502772278051   -1.494313706203
 F    1.062783188922   -0.025319094240    1.299919733493
 F   -1.102169311117    0.084449588430    1.277111647755
 C   -0.045127254894   -0.475298169206    0.693193401741
 F   -0.107150133538   -1.791675665730    0.924074936430
 H    0.901944196309   -0.623011787423   -1.225530827733
 H    0.983210397263    2.868352338327   -1.774583888800
 C    1.230001248556    1.824423908544   -1.592125888794
 H    1.367869406480    1.313427989464   -2.549497960037
 H    2.147687595428    1.767264716285   -1.001248012603
 O    0.136504422950    1.275594274843   -0.872759133035
 H   -1.658647003263    0.285586675305   -1.576563287028
