13

 C   -0.023957244441   -0.236130512567   -1.209443040930
 O   -1.013362659768   -0.406753209185   -1.868767667320
CL    1.415739244782    0.379713407771    1.103462022344
CL   -1.490538319846    0.325205472945    1.061394629311
 C   -0.031483741739   -0.348457934109    0.346504037290
CL    0.028139873954   -2.112225480000    0.553523064929
 H    1.008355644252   -0.339458082871   -1.591987207541
 H    0.948692220944    3.252051841597   -2.320480446920
 C    1.125563655062    2.216533982273   -2.028325180990
 H    1.300214617993    1.605051973036   -2.919194494850
 H    1.995240567774    2.171400389055   -1.375439640346
 O    0.030976573655    1.726511811296   -1.275006173002
 H   -0.784139862098    1.763933604137   -1.793697106507
