13

 C    0.118362111946    0.302867185610   -1.561942617083
 O   -0.935055830112    0.229635294992   -2.323298165854
BR    1.580261419147    0.458226482013    0.882812135879
BR   -1.600499059269    0.641610256820    0.721281289594
 C   -0.017144824911   -0.116603626090   -0.076125465993
BR   -0.113719294616   -2.055945706120   -0.083473384652
 H    1.090361505744   -0.048955386524   -1.938542563246
 H    1.100523658802    3.544058068644   -2.363757210168
 C    1.328419310726    2.487782669376   -2.220121145437
 H    1.513228693534    2.005182245779   -3.182074904682
 H    2.190510560574    2.379207283222   -1.564618592034
 O    0.197342743489    1.889629512495   -1.573747719507
 H   -0.719443185828    1.515506992399   -2.236316832174
