13

 C    0.067735506080    0.000891272146   -1.162298612072
 O   -1.030602260869   -0.272035637232   -1.896147875171
CL    1.423496851076    0.380626873043    1.119481461375
CL   -1.487812800845    0.325259411154    1.062266599382
 C   -0.018193192747   -0.335216901643    0.347868157900
CL    0.026132706244   -2.100862531743    0.538750538582
 H    1.015189354771   -0.394988967122   -1.546463430795
 H    0.759281445984    3.163716290365   -2.218530318919
 C    1.087176106618    2.147980265227   -1.996206852560
 H    1.319991775439    1.626083564226   -2.930563271657
 H    1.972178498361    2.182673745372   -1.359127270665
 O    0.019121171035    1.504370204812   -1.304330320185
 H   -1.223556485146    0.671568370334   -2.079705368498
