13

 C    0.000240149692   -0.501846014572    0.076530504717
 O   -1.120180744796   -0.845067583071   -0.711113809582
 H    0.712267742469   -0.730870209771    2.093513756417
 H   -1.031520078784   -0.418859838330    1.950649092309
 C   -0.184302334158   -0.948640059638    1.510794518020
 H   -0.384059151369   -2.020273742515    1.537249205821
 H    0.864675010217   -1.001577010432   -0.376664149256
 H    1.008231239818    2.419520105635   -0.994441486533
 C    1.201322812142    1.363845697784   -0.808997734784
 H    1.204260924302    0.829173176587   -1.764147142781
 H    2.180461501375    1.259239167220   -0.330149311762
 O    0.174461810836    0.891994912711    0.042738300576
 H   -1.657419435173   -0.049510304909   -0.775815285653
