13

 C    0.026499888210   -0.097349660531   -0.801616361286
 O   -1.099156706286   -0.525385445504   -1.489551484187
 F    1.061212876300   -0.022223085666    1.304670435998
 F   -1.104237076177    0.090338749561    1.277779654662
 C   -0.043344221622   -0.464600594984    0.689686245693
 F   -0.109764545865   -1.783071457032    0.893249044353
 H    0.896758719337   -0.611878512463   -1.223512156533
 H    1.024484421643    2.863939526060   -1.753488070522
 C    1.234300032843    1.808611005362   -1.592709403306
 H    1.332133641794    1.308973801614   -2.560836353003
 H    2.161775916123    1.706131633867   -1.022814637229
 O    0.137529295276    1.285073387047   -0.859198052066
 H   -1.769259786417    0.160709158904   -1.386175737330
