13

 C   -0.000620161661   -0.497660133822    0.080359177955
 O   -1.091437627045   -0.838572592747   -0.741113766978
 H    0.692837384656   -0.723313216958    2.101803666212
 H   -1.042439975591   -0.396804291795    1.952620788043
 C   -0.201025405229   -0.939378556848    1.514937417240
 H   -0.409754503621   -2.008877980094    1.548587579270
 H    0.862297549941   -1.005245781579   -0.364362695832
 H    1.037530033212    2.426695847086   -0.949398746342
 C    1.180953593849    1.353959037636   -0.829293176582
 H    1.085952359888    0.869420630361   -1.806069559276
 H    2.183517849194    1.171085237481   -0.427203254396
 O    0.192180365040    0.893613494858    0.070752560331
 H   -1.798528280324   -0.217284307434   -0.537530435605
