13

 C   -0.047594370324   -0.737083627983    0.087320619389
 O   -1.092365836767   -0.773465893156   -0.668257168340
 H    0.716219050025   -0.715108075004    2.116274955941
 H   -1.048461840775   -0.463222704909    1.948596377223
 C   -0.181024718381   -0.997827466965    1.563670710524
 H   -0.351461160391   -2.070275716165    1.686467469927
 H    0.922132730607   -1.058538423310   -0.337808096645
 H    1.015981051585    2.457213424059   -1.096542565705
 C    1.205559673926    1.421224179168   -0.829783490735
 H    1.326402563935    0.819603584425   -1.735037459365
 H    2.107478797425    1.363899850169   -0.219842532716
 O    0.109467188599    0.946782384315   -0.056995116098
 H   -0.721240556386    0.650785939884   -0.629809146814
