13

 C   -0.184449128329   -1.117078231762    0.064705110832
 O   -1.138561708083   -0.995945441110   -0.659644132565
 H    0.651015749954   -0.558477383387    1.948447732844
 H   -1.136633459265   -0.549169038329    1.891859629980
 C   -0.234827165997   -1.062924372253    1.562738910221
 H   -0.242949873010   -2.088688872923    1.945678293831
 H    0.816284737829   -1.318586740947   -0.369386235307
 H    1.298589187630    2.531623267997   -1.348879489685
 C    1.286928525791    1.533867207947   -0.900816401378
 H    1.245828432736    0.784729398504   -1.699286928275
 H    2.211031863192    1.397095265763   -0.339225801836
 O    0.220797770753    1.382925476382    0.016222129533
 H   -0.608573425831    1.353243586517   -0.469463677895
