13

 C    0.048576038926    0.112573051372   -1.182574621712
 O   -1.028866229882   -0.375016576284   -1.900195837847
CL    1.424086159508    0.380313314245    1.122188378635
CL   -1.491042826172    0.329757720090    1.063145284050
 C   -0.012879647303   -0.305868975691    0.323560844392
CL    0.024029048407   -2.076840341515    0.511882831966
 H    0.963500756239   -0.333600296323   -1.586975024340
 H    0.794253589628    3.131629368632   -2.170377090898
 C    1.105996524632    2.106978969031   -1.978457201907
 H    1.264856671177    1.594017293530   -2.931294998923
 H    2.030938048785    2.109470532033   -1.395590550736
 O    0.055767309914    1.498628183638   -1.240951567975
 H   -1.714230634619    0.303321316191   -1.864443524359
