13

 C    0.015170751775   -0.097578317729   -1.189183350818
 O   -1.006633871042   -0.304548223349   -1.877902233390
CL    1.423765479007    0.381267645421    1.119069279955
CL   -1.488128063746    0.325399361823    1.062791340760
 C   -0.021390654250   -0.337886269529    0.351057306282
CL    0.026644018122   -2.100952925453    0.539754688673
 H    1.035067557557   -0.345880395554   -1.545180578323
 H    0.798899406626    3.185336198981   -2.240762099917
 C    1.088933663125    2.165122212103   -2.008761777419
 H    1.314932171596    1.609771938807   -2.922181799793
 H    1.942164010084    2.162785571787   -1.334382723394
 O    0.005653910606    1.550625237774   -1.310929914948
 H   -0.787737928984    1.395122508544   -1.883831875783
