13

 C    0.069796142946    0.042495836188   -1.166201829403
 O   -1.035747961048   -0.286731840264   -1.898114473913
CL    1.423432724445    0.380317697566    1.119683039191
CL   -1.487858806244    0.325239343434    1.062229106792
 C   -0.017617349325   -0.331874871270    0.344444819073
CL    0.025923538622   -2.100216425035    0.537878169075
 H    1.001157511680   -0.389491119651   -1.553213357233
 H    0.749022864927    3.153355135189   -2.208996778888
 C    1.089172728635    2.141763740657   -1.991728825098
 H    1.317671926207    1.627739389469   -2.931178189720
 H    1.984657739689    2.186927274783   -1.367459558773
 O    0.030786751996    1.493856313899   -1.295431065318
 H   -1.356987397796    0.598478179729   -2.125075532324
