13

 C   -0.159276024914   -1.026837474108    0.060606412088
 O   -1.122411283452   -0.941410491010   -0.659840711267
 H    0.702591578778   -0.614339198935    1.980005636570
 H   -1.079537839791   -0.478844667520    1.912063785590
 C   -0.211340529440   -1.034804528250    1.561507707793
 H   -0.299415855007   -2.075336860302    1.890427904038
 H    0.848013684646   -1.182832758871   -0.375854508330
 H    1.248877971568    2.520249966373   -1.270050203157
 C    1.266821691439    1.500952711912   -0.875173792790
 H    1.278406094014    0.792944274345   -1.711577575726
 H    2.178079081251    1.371831054278   -0.291418533303
 O    0.182883416906    1.261471123071   -0.002972917896
 H   -0.636986707496    1.262765023653   -0.507953730494
