13

 C    0.149110473831    0.383174989700   -1.546905697245
 O   -0.951693840706    0.225622474031   -2.334562814570
BR    1.580095279292    0.458063850157    0.882697301245
BR   -1.600447979347    0.641644428549    0.721138906782
 C   -0.015645933824   -0.112952128310   -0.080706440252
BR   -0.113869178096   -2.055772745315   -0.083811324059
 H    1.062544379656   -0.069281488741   -1.951972075115
 H    1.077018881035    3.525261959663   -2.348346646435
 C    1.329131354649    2.474287504119   -2.210359649171
 H    1.515120106518    2.015403417892   -3.187011262067
 H    2.223446410371    2.395263831729   -1.587626789593
 O    0.219543264311    1.863572134583   -1.558197040805
 H   -1.162923769247    1.163098305455   -2.472497241246
