13

 C   -0.000969243075   -0.498338409638    0.079347696573
 O   -1.096268390479   -0.840220041460   -0.736792712749
 H    0.697976309730   -0.724127653150    2.099318044585
 H   -1.038784101827   -0.399844124203    1.953559585597
 C   -0.197118537962   -0.940447031530    1.514289654450
 H   -0.404484641922   -2.010275112917    1.547081373442
 H    0.861603587764   -1.004972202737   -0.367297002508
 H    1.032537457974    2.425309625832   -0.957640361756
 C    1.185249295759    1.355324444612   -0.824919619231
 H    1.109062481668    0.860555729324   -1.798197886346
 H    2.183728922067    1.186752479129   -0.407015541984
 O    0.188142427160    0.893528989622    0.065386223454
 H   -1.782985005740   -0.185694646184   -0.567090336826
