13

 C    0.030032744063   -0.108467347893   -0.806632526295
 O   -1.109976146275   -0.500424394409   -1.494684878430
 F    1.062838629419   -0.025550360649    1.299740397285
 F   -1.101987589280    0.084001298121    1.277056490141
 C   -0.045215182265   -0.476245459947    0.693594085904
 F   -0.106996132160   -1.792505064921    0.926508964520
 H    0.902564823262   -0.623988768654   -1.225574961828
 H    0.980078248899    2.868791077597   -1.775634893695
 C    1.229438648756    1.825619793751   -1.592259696734
 H    1.370092238218    1.314458401088   -2.549160229802
 H    2.146418146155    1.771327990010   -1.000064950984
 O    0.136288772876    1.274752094629   -0.874168755276
 H   -1.649003237808    0.293473078183   -1.589894552990
