13

 C    0.135280127394    0.468748262364   -1.561318484725
 O   -0.955286158965    0.139250227604   -2.349775846899
BR    1.579836063885    0.457317574797    0.882884040942
BR   -1.601173337929    0.643085535702    0.721240311494
 C   -0.008792036221   -0.089091480786   -0.102510775918
BR   -0.113509752408   -2.043663496772   -0.091534941273
 H    1.026441862045   -0.007409067154   -1.984977212900
 H    1.103196630722    3.496159462685   -2.302273071498
 C    1.339894469534    2.439321888617   -2.196712006244
 H    1.457083110562    1.994494216944   -3.189010217698
 H    2.264418987407    2.327369857513   -1.623977999860
 O    0.250270788164    1.851891362629   -1.498520471944
 H   -1.562724561995    0.885991659319   -2.301914059724
