7

 C    0.214494602725   -0.077047825834   -1.558442135735
 O   -0.725989367275   -0.094029652934   -2.282977866435
CL    1.578822561225    0.737318917966    0.643895147665
CL   -1.321584181975    0.975863025866    0.447432272965
 C    0.092394361025    0.039055250166   -0.017032419435
CL   -0.066744054675   -1.650716187234    0.547928324365
 H    1.258256508925   -0.222705980334   -1.886400794135
