13
IRC point 0
 C    0.006693921941   -0.279637173482   -0.800658013323
 O   -1.082450078059   -0.421790173482   -1.488010013323
 F    1.062802921941   -0.023956173482    1.295002986677
 F   -1.097540078059    0.080594826518    1.276018986677
 H    0.977178921941    2.910158826518   -1.818850013323
 C    1.210429921941    1.867744826518   -1.614497013323
 H    1.400920921941    1.327363826518   -2.544543013323
 H    2.068480921941    1.802669826518   -0.948289013323
 O    0.082404921941    1.298677826518   -0.934784013323
 H   -0.815825078059    0.946670826518   -1.521710013323
 C   -0.049908078059   -0.505362173482    0.713694986677
 F   -0.104426078059   -1.814355173482    0.969129986677
 H    0.966199921941   -0.661243173482   -1.191146013323
13
IRC point -5
 C   -0.001814816615   -0.289913920882   -0.804578880802
 O   -1.079766854222   -0.428732435039   -1.485363064631
 F    1.062937059547   -0.023804206911    1.294877200424
 F   -1.097480334595    0.080647414033    1.276207239167
 H    0.982717598602    2.910630109738   -1.820600523245
 C    1.210709131744    1.869710356007   -1.615949103113
 H    1.399684843129    1.325495454356   -2.543759172278
 H    2.065863180024    1.799790318576   -0.945221490576
 O    0.082713585358    1.305110237467   -0.934344744245
 H   -0.765568537084    1.049744477348   -1.507926689370
 C   -0.050634037301   -0.505660039898    0.713384123926
 F   -0.104330038762   -1.814265475700    0.969272812817
 H    0.967941306261   -0.654988546962   -1.192204380391
13
IRC point -10
 C   -0.011599598800   -0.302193826300   -0.809354510156
 O   -1.077111402014   -0.437821307076   -1.482412158629
 F    1.062895149773   -0.023631486750    1.294494735184
 F   -1.097585583749    0.080788975762    1.276501989223
 H    0.990197726675    2.913527290727   -1.824133351618
 C    1.211653459304    1.872151727753   -1.617229024895
 H    1.398904877060    1.323601668991   -2.542793597318
 H    2.064009623893    1.798103756744   -0.943664542816
 O    0.084932666359    1.314733535768   -0.932853516436
 H   -0.734023506539    1.150078242805   -1.502443973938
 C   -0.051367580918   -0.505890678810    0.712914066982
 F   -0.104195264539   -1.814328566349    0.969630525557
 H    0.968416710118   -0.647964145451   -1.194567075298
13
IRC point -15
 C   -0.021760933718   -0.316158593416   -0.814510913472
 O   -1.075320515647   -0.448955717145   -1.479621821666
 F    1.062645610987   -0.023477879785    1.293679582461
 F   -1.097772254702    0.080960494491    1.276869119833
 H    1.000732345579    2.918703356509   -1.829438292795
 C    1.213692117929    1.875231220796   -1.618340656010
 H    1.398303771281    1.321883703638   -2.541691118903
 H    2.064249154208    1.797483460104   -0.944138392935
 O    0.088718297110    1.327854280878   -0.930377865124
 H   -0.718668335076    1.239232540605   -1.497971932192
 C   -0.052279750227   -0.506107261653    0.712233820446
 F   -0.104037300899   -1.814545417799    0.970262847103
 H    0.967206668354   -0.641333983549   -1.198680077524
13
IRC point -20
 C   -0.031155284582   -0.331474293294   -0.819288630706
 O   -1.074952656837   -0.461632381909   -1.477370389161
 F    1.062108171449   -0.023370512435    1.292255446205
 F   -1.098037521150    0.081138318223    1.277238987057
 H    1.014786106331    2.925249589214   -1.836461684378
 C    1.216953389359    1.879157565325   -1.619497600635
 H    1.397920547754    1.320558513321   -2.540600741880
 H    2.067049012101    1.797758859692   -0.946352850907
 O    0.093187515846    1.344164495236   -0.927191053373
 H   -0.711427404716    1.312434553288   -1.488905642127
 C   -0.053343331255   -0.506391154093    0.711408610433
 F   -0.103879115956   -1.814973123751    0.971271347195
 H    0.964566613383   -0.636021612679   -1.204556356100
13
IRC point -25
 C   -0.039203010319   -0.347534113808   -0.823243097650
 O   -1.075922865620   -0.475063825392   -1.475678922882
 F    1.061271636340   -0.023317926928    1.290146135800
 F   -1.098361163220    0.081288448245    1.277496816340
 H    1.031765093010    2.931931670615   -1.844690873174
 C    1.221178364194    1.883946090132   -1.620916846358
 H    1.397645074779    1.319644024811   -2.539713342763
 H    2.072014459791    1.798464475050   -0.949550942205
 O    0.097748804019    1.362668662479   -0.923413280975
 H   -0.707617849397    1.370532506603   -1.476286480366
 C   -0.054512714113   -0.506864528661    0.710532566287
 F   -0.103755390380   -1.815642067065    0.972723296198
 H    0.961073581870   -0.632469993862   -1.211490102135
13
IRC point -30
 C   -0.046054390738   -0.363945226459   -0.826385623020
 O   -1.077769415865   -0.488705437004   -1.474317861071
 F    1.060179243584   -0.023315505886    1.287338839404
 F   -1.098728060098    0.081376217012    1.277538404164
 H    1.050564422504    2.938724153696   -1.853730879611
 C    1.226047181407    1.889426472220   -1.622655766035
 H    1.397193548735    1.319026065858   -2.539042603822
 H    2.078212947989    1.799264860602   -0.953421078141
 O    0.102230484473    1.382539828350   -0.919110604121
 H   -0.705150440960    1.417822816253   -1.463099327620
 C   -0.055774137837   -0.507624566822    0.709670924888
 F   -0.103694786016   -1.816575238163    0.974679682438
 H    0.957230518062   -0.630511828328   -1.218687097892
13
IRC point -35
 C   -0.051982478206   -0.380347603825   -0.828833643826
 O   -1.080056926547   -0.502151734937   -1.473081795170
 F    1.058905641273   -0.023350811527    1.283879475933
 F   -1.099137878158    0.081374739168    1.277296013859
 H    1.070099631289    2.945629327709   -1.863164290081
 C    1.231253488043    1.895360261809   -1.624645882208
 H    1.396309297748    1.318637563056   -2.538532945274
 H    2.085002565194    1.800033859617   -0.957830057467
 O    0.106557880474    1.403113496486   -0.914485261778
 H   -0.702190643980    1.457821805751   -1.450674545388
 C   -0.057123208122   -0.508732296143    0.708845163311
 F   -0.103718965416   -1.817773475084    0.977184834044
 H    0.953302738120   -0.629794561731   -1.225570591812
13
IRC point -40
 C   -0.057262818568   -0.396695111489   -0.830733217079
 O   -1.082541583506   -0.515324118239   -1.471843981081
 F    1.057513621780   -0.023413172287    1.279785340826
 F   -1.099604219447    0.081263447353    1.276725887813
 H    1.089867026987    2.952599336544   -1.872756651283
 C    1.236637793697    1.901623022475   -1.626813801464
 H    1.394834697157    1.318446975712   -2.538151298000
 H    2.092135669719    1.800743104662   -0.962728325679
 O    0.110838743320    1.424216009200   -0.909633454822
 H   -0.698890687737    1.493335410472   -1.439914014345
 C   -0.058575719342   -0.510214975424    0.708060530473
 F   -0.103839258732   -1.819241007140    0.980302971992
 H    0.949426096093   -0.629984580335   -1.231949615352
13
IRC point -45
 C   -0.062017684741   -0.412873325575   -0.832171577150
 O   -1.085092147709   -0.528111554233   -1.470565254137
 F    1.056064910129   -0.023497231920    1.275094564095
 F   -1.100145718391    0.081023993040    1.275798495798
 H    1.109466271702    2.959516429780   -1.882278687918
 C    1.242070828544    1.908088721450   -1.629088098426
 H    1.392723713381    1.318487094461   -2.537882265749
 H    2.099459709938    1.801376829557   -0.968044244038
 O    0.115088164774    1.445651036264   -0.904686545917
 H   -0.694862230020    1.525789867180   -1.430535232670
 C   -0.060117366929   -0.512084587619    0.707317525935
 F   -0.104063837275   -1.820961230370    0.984077392123
 H    0.945655291391   -0.630840840370   -1.237755723648
13
IRC point -50
 C   -0.066341264062   -0.428813645170   -0.833243888961
 O   -1.087646137652   -0.540473954031   -1.469240233471
 F    1.054610565326   -0.023610276161    1.269846984321
 F   -1.100780843598    0.080633550116    1.274496817960
 H    1.128709989636    2.966334370701   -1.891597647855
 C    1.247476842590    1.914675075272   -1.631421737110
 H    1.390015709751    1.318800937612   -2.537736322944
 H    2.106871717560    1.801906262286   -0.973693591171
 O    0.119368329740    1.467337029299   -0.899700256821
 H   -0.690575233193    1.556233406063   -1.422448706623
 C   -0.061731167651   -0.514351162246    0.706618266182
 F   -0.104397044961   -1.822917482689    0.988542556432
 H    0.942021447602   -0.632185713764   -1.243017893529
13
IRC point -55
 C   -0.070298277662   -0.444459069271   -0.834028623178
 O   -1.090178351452   -0.552379080786   -1.467886325938
 F    1.053194197156   -0.023768230623    1.264095785573
 F   -1.101522089496    0.080069133466    1.272816565806
 H    1.147505877807    2.973028110631   -1.900621577961
 C    1.252812035361    1.921333399986   -1.633784236719
 H    1.386801727449    1.319452079966   -2.537721167723
 H    2.114271627322    1.802311540087   -0.979588337799
 O    0.123683682824    1.489193795993   -0.894732586652
 H   -0.685941549707    1.585337917490   -1.415140188872
 C   -0.063397196996   -0.517010216970    0.705962219047
 F   -0.104838112170   -1.825080128783    0.993711097754
 H    0.938521083007   -0.633926216390   -1.247808031048
13
IRC point -60
 C   -0.073944918273   -0.459804696071   -0.834603561494
 O   -1.092691914673   -0.563826059947   -1.466527270420
 F    1.051844323598   -0.023976080576    1.257893730894
 F   -1.102372013981    0.079326545051    1.270761713827
 H    1.165812775239    2.979624410153   -1.909280607074
 C    1.258057187003    1.928061486182   -1.636154363440
 H    1.383189212014    1.320531072445   -2.537845698643
 H    2.121588339311    1.802604753818   -0.985639014190
 O    0.128050364996    1.511125816190   -0.889807773170
 H   -0.681153324784    1.613603357020   -1.408325357942
 C   -0.065089755463   -0.520048204666    0.705341738451
 F   -0.105381299978   -1.827405565111    0.999588179413
 H    0.935138964826   -0.636031825141   -1.252202015987
13
IRC point -65
 C   -0.077332176446   -0.474813019416   -0.835040063071
 O   -1.095203229340   -0.574840717767   -1.465183892590
 F    1.050578849968   -0.024246360018    1.251294428292
 F   -1.103327732250    0.078399999452    1.268340182845
 H    1.183608147915    2.986173411719   -1.917515994214
 C    1.263203347313    1.934873273405   -1.638512413229
 H    1.379269802044    1.322117657404   -2.538126745580
 H    2.128765675639    1.802813371400   -0.991769343659
 O    0.132485180638    1.533057264743   -0.884948931796
 H   -0.676315399914    1.641374173805   -1.401767544258
 C   -0.066786409362   -0.523449852410    0.704750925936
 F   -0.106017797035   -1.829855457919    1.006170377996
 H    0.931849198156   -0.638562755770   -1.256267387162
13
IRC point -70
 C   -0.080503733968   -0.489429717288   -0.835394509683
 O   -1.097734137199   -0.585467087488   -1.463869476992
 F    1.049408793673   -0.024597256912    1.244351485387
 F   -1.104380079831    0.077282933726    1.265564322552
 H    1.200897726116    2.992721846081   -1.925285760940
 C    1.268251578424    1.941792049240   -1.640845858268
 H    1.375090657234    1.324268250605   -2.538566458950
 H    2.135767516611    1.802964422553   -0.997930994499
 O    0.136995999545    1.554923385469   -0.880177086383
 H   -0.671469254479    1.668935744865   -1.395286401603
 C   -0.068474274556   -0.527200789458    0.704179800650
 F   -0.106734934098   -1.832395645175    1.013443899280
 H    0.928633019772   -0.641480596801   -1.260070470378
13
IRC point -75
 C   -0.083502649406   -0.503623889458   -0.835713307087
 O   -1.100309989661   -0.595764142263   -1.462592549623
 F    1.048339821549   -0.025035758265    1.237107463298
 F   -1.105518274947    0.075986875169    1.262443079207
 H    1.217684308321    2.999338232003   -1.932547714073
 C    1.273202794004    1.948854099726   -1.643143566257
 H    1.370657118549    1.327036980824   -2.539167082067
 H    2.142589662943    1.803090173018   -1.004098700559
 O    0.141596162007    1.576639455467   -0.875499880413
 H   -0.666637211386    1.696532152631   -1.388739752709
 C   -0.070141335098   -0.531282602497    0.703616589694
 F   -0.107517685016   -1.834983353719    1.021392105986
 H    0.925464850462   -0.644814903656   -1.263659197262
13
IRC point -80
 C   -0.086369869057   -0.517332248519   -0.836036244033
 O   -1.102957010660   -0.605794509306   -1.461357978664
 F    1.047371794134   -0.025575154798    1.229599556790
 F   -1.106732171473    0.074524821854    1.258983454726
 H    1.233949321622    3.006078838614   -1.939243363309
 C    1.278053257388    1.956086882600   -1.645394573088
 H    1.365945259017    1.330471009154   -2.539935676350
 H    2.149228418006    1.803212192377   -1.010282219803
 O    0.146315160259    1.598123727547   -0.870917001111
 H   -0.661819516658    1.724310941041   -1.381996969050
 C   -0.071778830599   -0.535674870096    0.703048660450
 F   -0.108352589747   -1.837583151388    1.029994544356
 H    0.922324617933   -0.648532946163   -1.267087520480
13
IRC point -85
 C   -0.089144583812   -0.530506731207   -0.836387654691
 O   -1.105696016261   -0.615631639488   -1.460162887110
 F    1.046500888110   -0.026238918969    1.221863266045
 F   -1.108012964292    0.072906530854    1.255198903816
 H    1.249720790811    3.012993629478   -1.945340760354
 C    1.282803700266    1.963509046961   -1.647598535778
 H    1.360921066635    1.334598218013   -2.540883590192
 H    2.155702115750    1.803321813468   -1.016510430102
 O    0.151180432334    1.619339817015   -0.866417870805
 H   -0.657019801894    1.752402350812   -1.374979093137
 C   -0.073386183782   -0.540347350347    0.702467746561
 F   -0.109225217776   -1.840164250869    1.039210031828
 H    0.919183625800   -0.652567212711   -1.270402085290
13
IRC point -90
 C   -0.091859979043   -0.543137705433   -0.836786150637
 O   -1.108539995091   -0.625333566438   -1.459003121750
 F    1.045725019020   -0.027038530787    1.213935953221
 F   -1.109351367235    0.071159883413    1.251100339181
 H    1.264986869202    3.020137491132   -1.950770329803
 C    1.287444037089    1.971138013152   -1.649754387725
 H    1.355549616140    1.339480307438   -2.542044600917
 H    2.162017221155    1.803406515487   -1.022829998745
 O    0.156202595778    1.640195107005   -0.861992321338
 H   -0.652174067142    1.780892364116   -1.367574369303
 C   -0.074957292428   -0.545260805933    0.701868341171
 F   -0.110118304275   -1.842678297092    1.048989860804
 H    0.916037157018   -0.656726833600   -1.273648437025
13
IRC point -95
 C   -0.094549549315   -0.555309222791   -0.837247943435
 O   -1.111506199228   -0.634975850551   -1.457873460033
 F    1.045036737901   -0.027965263864    1.205845576806
 F   -1.110738160111    0.069338103964    1.246695233192
 H    1.279734363674    3.027588650493   -1.955438218771
 C    1.291958285478    1.979006104498   -1.651861242819
 H    1.349809139791    1.345229644537   -2.543472695283
 H    2.168198464590    1.803458637096   -1.029300965995
 O    0.161413796246    1.660606666998   -0.857612642418
 H   -0.647236777042    1.809862792605   -1.359663275474
 C   -0.076492104455   -0.550362948345    0.701241004119
 F   -0.111015177143   -1.845068844102    1.059283143135
 H    0.912854354914   -0.660999743062   -1.276862328031
