13

 C    0.036228380606    0.126595807732   -1.615992494422
 O   -0.940441205968    0.100874995138   -2.315980457536
BR    1.576582959499    0.458463322565    0.875544078365
BR   -1.601751255463    0.642342374630    0.720728352045
 C   -0.029417330720   -0.124929630141   -0.079010778267
BR   -0.112836131695   -2.062569875887   -0.078149778615
 H    1.069462444990   -0.016042860974   -1.982652504426
 H    1.279688661815    3.611088038636   -2.451429139598
 C    1.370569766103    2.545492490334   -2.238139831990
 H    1.493966163801    1.990252773526   -3.173484720461
 H    2.234046373540    2.380720846349   -1.596104079224
 O    0.240797741978    2.091274509169   -1.515795400360
 H   -0.567032973073    2.225910511221   -2.029499867679
