13

 C    0.119619326082    0.304339174681   -1.561153691106
 O   -0.935497569815    0.230661024260   -2.323647529696
BR    1.580258001976    0.458225186008    0.882806176658
BR   -1.600497476230    0.641611710245    0.721275034519
 C   -0.017108802196   -0.116583648024   -0.076179077830
BR   -0.113722640010   -2.055946585913   -0.083479857842
 H    1.089567497947   -0.049946332375   -1.938603477635
 H    1.099810337410    3.544479896960   -2.363575691145
 C    1.328415948822    2.487416106014   -2.219888847277
 H    1.513356556526    2.005653842612   -3.181866319857
 H    2.191194188719    2.379675546650   -1.565233884780
 O    0.197723186103    1.888980484474   -1.573542353143
 H   -0.732727252632    1.495814303287   -2.243803243571
