13

 C   -0.119197297275   -0.882820729279    0.062723937882
 O   -1.098525974106   -0.863673133936   -0.659707940239
 H    0.724594909747   -0.669639168566    2.045977852910
 H   -1.051407597368   -0.460411952289    1.946640349445
 C   -0.191634722425   -1.007591057097    1.561930023821
 H   -0.331541507447   -2.071209586136    1.778404022839
 H    0.889232213297   -1.062020115940   -0.363766489924
 H    1.137303037121    2.494381846780   -1.176257582331
 C    1.233369703015    1.457735414626   -0.848090055730
 H    1.313238754246    0.802720491700   -1.722416403479
 H    2.133265747221    1.363300721747   -0.241940567647
 O    0.145195569614    1.093637482903   -0.030941585576
 H   -0.669138372170    1.104980097499   -0.551945405485
