13

 C   -0.051872194038   -0.742474065265    0.085309912656
 O   -1.091224080761   -0.776882177910   -0.667024600466
 H    0.716658667282   -0.714368795530    2.115242692970
 H   -1.048578847285   -0.463582825190    1.949080773238
 C   -0.181133864662   -0.997784330409    1.563743802323
 H   -0.350962444832   -2.070247536522    1.687736845306
 H    0.922112433306   -1.055925605280   -0.338197490599
 H    1.018983308688    2.458150097700   -1.098337823155
 C    1.205903518510    1.422250397052   -0.830427618437
 H    1.326023817159    0.818676697676   -1.734389338390
 H    2.106410174500    1.363228321480   -0.218740539568
 O    0.110368713366    0.950876304484   -0.056558567335
 H   -0.707884019830    0.689123352156   -0.625845842965
