13

 C   -0.007530497345   -0.677435532720    0.102491550566
 O   -1.107478584103   -0.756275614543   -0.680629927769
 H    0.713202762616   -0.717953858264    2.116917077329
 H   -1.045803868118   -0.457784910437    1.947519440195
 C   -0.181558475559   -0.999001816082    1.561373645469
 H   -0.354361190430   -2.071105052181    1.681706191717
 H    0.906097335616   -1.090395722079   -0.341341890145
 H    0.993309989368    2.451634901432   -1.082649352813
 C    1.205019746282    1.411596306644   -0.821540042562
 H    1.330515819056    0.830330178255   -1.743068359785
 H    2.129962073198    1.374869159244   -0.242128970352
 O    0.120121614682    0.920365760908   -0.047461492449
 H   -1.099364982407    0.229592521321   -0.811036232744
