13

 C    0.143519421989    0.459594761925   -1.558233650186
 O   -0.961324297736    0.176001065190   -2.342311184272
BR    1.579985802448    0.457677138618    0.882853982844
BR   -1.600644641470    0.641949851275    0.721209922174
 C   -0.012567805264   -0.096789222678   -0.095546809888
BR   -0.113878957448   -2.052291354851   -0.086148762952
 H    1.038140618529   -0.020624850845   -1.973184939697
 H    1.070260330087    3.504677900491   -2.325163403019
 C    1.335821991952    2.456468002199   -2.201617305138
 H    1.494248586876    2.005295592880   -3.185754451021
 H    2.247764080437    2.379846632369   -1.604150409768
 O    0.244499479110    1.848954928365   -1.526395625353
 H   -1.403443658805    1.023624884101   -2.468247369277
