13

 C    0.109471817037    0.292588130525   -1.567620255188
 O   -0.932014377346    0.222549276877   -2.320857598517
BR    1.580280535616    0.458240056430    0.882797600577
BR   -1.600527731398    0.641597343960    0.721283348128
 C   -0.017535090155   -0.116746610685   -0.075724576330
BR   -0.113701170476   -2.055959406099   -0.083459718871
 H    1.094488088009   -0.042090742077   -1.937980553569
 H    1.105708670772    3.543309922031   -2.365508592445
 C    1.328671242669    2.490024914609   -2.221465862691
 H    1.512389062981    2.002342497656   -3.181851298739
 H    2.186613821132    2.376263156357   -1.560470081150
 O    0.196458606577    1.895394711458   -1.573792347008
 H   -0.651425208779    1.634553120500   -2.198777329040
