13

 C    0.043558519756   -0.176960830243   -0.795595630175
 O   -1.104061405335   -0.428236074173   -1.499471322393
 F    1.062399741986   -0.025893943937    1.295871764270
 F   -1.098003460791    0.079681525171    1.275355235778
 C   -0.047078533308   -0.499014893239    0.710140126622
 F   -0.105310336846   -1.812614596767    0.965498732770
 H    0.930219390852   -0.681260238049   -1.201696077392
 H    0.947649019171    2.888237486626   -1.797635601267
 C    1.213016365224    1.850549280210   -1.601043732292
 H    1.402108736403    1.339160540604   -2.550495846571
 H    2.109616500596    1.820161241187   -0.977760946436
 O    0.110480993693    1.268063190651   -0.915782548608
 H   -1.365661365152    0.475051353893   -1.730165621124
