13

 C    0.027125575417   -0.251549435481   -0.792806876045
 O   -1.090497258686   -0.408614577556   -1.494593010772
 F    1.062496447805   -0.024488658790    1.294891152280
 F   -1.097411975053    0.080290583511    1.275596753914
 C   -0.048837628973   -0.504364226601    0.713786104205
 F   -0.104708461483   -1.814489792576    0.968842679062
 H    0.955037785416   -0.679467360435   -1.191246618184
 H    0.966341122709    2.910222832060   -1.814460875202
 C    1.210785596482    1.862240034380   -1.609695315616
 H    1.403229650377    1.332829476136   -2.547764658794
 H    2.079271142594    1.810410512325   -0.961958326356
 O    0.089926457656    1.288402943881   -0.930357655442
 H   -1.050152897113    0.643125364931   -1.611136563268
