13

 C    0.043595838566   -0.172205324460   -0.796315719559
 O   -1.104776900829   -0.430409178831   -1.499553751628
 F    1.062437198622   -0.025989634418    1.296011715633
 F   -1.098086078345    0.079658465721    1.275389033693
 C   -0.046997249987   -0.498452533858    0.709638258653
 F   -0.105344694327   -1.812273020007    0.965002126181
 H    0.928700190846   -0.679101956731   -1.202746306542
 H    0.946630141046    2.887098228305   -1.796437428004
 C    1.213352917857    1.849709902793   -1.600527344741
 H    1.401650689372    1.339047467288   -2.550490786398
 H    2.110997242148    1.820170129744   -0.978608093474
 O    0.111897209573    1.267002860643   -0.914604272240
 H   -1.379087379464    0.467928398882   -1.732376119808
