13

 C    0.060539981626    0.212718550175   -1.602747505141
 O   -0.928833722102    0.159188990541   -2.314862148036
BR    1.579751665172    0.458532557636    0.881360451503
BR   -1.601008971264    0.641854376419    0.721420050797
 C   -0.023003278182   -0.118707983137   -0.075879552225
BR   -0.113366920012   -2.056995068155   -0.082425576246
 H    1.086114830952   -0.013261769283   -1.957076348301
 H    1.178678983632    3.573628023046   -2.400358048246
 C    1.344338512545    2.511315064250   -2.227458030033
 H    1.508792432865    1.992011067019   -3.175288357167
 H    2.196870489788    2.375194665721   -1.566386740610
 O    0.216999168494    1.977017466099   -1.550611553064
 H   -0.585047366153    2.055882886835   -2.096226328054
