13

 C   -0.036462983791   -0.723684001872    0.092533059442
 O   -1.095729983791   -0.765226001872   -0.671670940558
 H    0.715155016209   -0.716144001872    2.117684059442
 H   -1.048436983791   -0.461731001872    1.947694059442
 H    1.009427016209    2.456860998128   -1.093602940558
 C    1.205172016209    1.418681998128   -0.827950940558
 H    1.327774016209    0.821421998128   -1.737007940558
 H    2.111309016209    1.366216998128   -0.224376940558
 O    0.108954016209    0.938118998128   -0.056947940558
 H   -0.783229983791    0.533595998128   -0.652825940558
 C   -0.180936983791   -0.997975001872    1.563336059442
 H   -0.352621983791   -2.070300001872    1.684973059442
 H    0.920242016209   -1.066363001872   -0.336706940558
13

 C   -0.043526216479   -0.732050627863    0.089225164696
 O   -1.093539101716   -0.770357572652   -0.669471507192
 H    0.715820104450   -0.715671620249    2.116980795480
 H   -1.048387792725   -0.462807368632    1.948202315573
 H    1.013368412516    2.456669558979   -1.095099217010
 C    1.205334075860    1.420277782681   -0.829137281183
 H    1.326800914818    0.820448608795   -1.735675312845
 H    2.108685715780    1.364656528403   -0.221205415149
 O    0.108912983499    0.943231473581   -0.057212727366
 H   -0.738313842226    0.611774815612   -0.635453883151
 C   -0.180959878682   -0.997895974299    1.563578063663
 H   -0.351893280823   -2.070308575086    1.685555327777
 H    0.921861918947   -1.061222624809   -0.337547792115
13

 C   -0.051872194038   -0.742474065265    0.085309912656
 O   -1.091224080761   -0.776882177910   -0.667024600466
 H    0.716658667282   -0.714368795530    2.115242692970
 H   -1.048578847285   -0.463582825190    1.949080773238
 H    1.018983308688    2.458150097700   -1.098337823155
 C    1.205903518510    1.422250397052   -0.830427618437
 H    1.326023817159    0.818676697676   -1.734389338390
 H    2.106410174500    1.363228321480   -0.218740539568
 O    0.110368713366    0.950876304484   -0.056558567335
 H   -0.707884019830    0.689123352156   -0.625845842965
 C   -0.181133864662   -0.997784330409    1.563743802323
 H   -0.350962444832   -2.070247536522    1.687736845306
 H    0.922112433306   -1.055925605280   -0.338197490599
13

 C   -0.060724091125   -0.754126310139    0.081177487147
 O   -1.089244440118   -0.784535455617   -0.664658062191
 H    0.717659907511   -0.712314772765    2.112081896575
 H   -1.048855404584   -0.464135393134    1.950255291710
 H    1.026261748131    2.460991099988   -1.102934626729
 C    1.207010091925    1.424566956349   -0.831696450994
 H    1.325310104808    0.816707758916   -1.733044105385
 H    2.105039668205    1.362235667302   -0.217459439791
 O    0.113019141686    0.960573677092   -0.055143256336
 H   -0.690945241667    0.761915918280   -0.620836241679
 C   -0.181503399764   -0.997802923275    1.563811379814
 H   -0.349751538417   -2.070212154807    1.691448500139
 H    0.921183523817   -1.051195895857   -0.339475469527
13

 C   -0.069491167242   -0.766781184521    0.077233568762
 O   -1.087950674004   -0.793062091163   -0.662641448278
 H    0.718815123364   -0.709430016801    2.107375029718
 H   -1.049124074147   -0.464422061819    1.951548472837
 H    1.035348100652    2.464856657076   -1.108832080080
 C    1.208736454798    1.427268683390   -0.832973135577
 H    1.324615313834    0.814716279612   -1.731630530329
 H    2.104947172235    1.361734275430   -0.217500613038
 O    0.116403094060    0.972116684543   -0.053217292477
 H   -0.683040913854    0.827269119284   -0.616118913132
 C   -0.182090843406   -0.998003935172    1.563762975038
 H   -0.348251557850   -2.070218687889    1.696843746416
 H    0.919181973870   -1.047481513554   -0.341483704844
13

 C   -0.077759030792   -0.780298030365    0.073780865469
 O   -1.087520837572   -0.802170193511   -0.661134787159
 H    0.720073386112   -0.705722586464    2.101235849727
 H   -1.049310613228   -0.464428663059    1.952701777631
 H    1.046196309345    2.469198022869   -1.115859080150
 C    1.211049286202    1.430374640863   -0.834345333521
 H    1.323881502655    0.812805316781   -1.730193203735
 H    2.106216026457    1.361624252323   -0.218713804427
 O    0.120111222273    0.985258126302   -0.050953761549
 H   -0.679627296718    0.883911463190   -0.609282261636
 C   -0.182892822722   -0.998430513481    1.563605730290
 H   -0.346489335456   -2.070279023019    1.703928547994
 H    0.916333235045   -1.045056895544   -0.344130542898
13

 C   -0.085337601929   -0.794502646547    0.070944307033
 O   -1.087937407972   -0.811574620491   -0.660156004612
 H    0.721354960184   -0.701290392210    2.093983130381
 H   -1.049376540494   -0.464176529240    1.953452120072
 H    1.058526853585    2.473368513818   -1.123711493143
 C    1.213824392205    1.433873839319   -0.835895163173
 H    1.323034449517    0.811020501378   -1.728803138841
 H    2.108766555959    1.361747796266   -0.220770525663
 O    0.123911043243    0.999661504022   -0.048424644629
 H   -0.678106886393    0.931961495346   -0.600445223472
 C   -0.183884050481   -0.999105017666    1.563369130106
 H   -0.344521191292   -2.070394651435    1.712543761289
 H    0.912896786994   -1.044023042110   -0.347189128902
13

 C   -0.092238699428   -0.809205299916    0.068684881272
 O   -1.089036883807   -0.821029679376   -0.659616537814
 H    0.722543522420   -0.696308371519    2.086005768135
 H   -1.049400152559   -0.463686505580    1.953639294497
 H    1.071828899650    2.477300010731   -1.132162853985
 C    1.216925229808    1.437678385492   -0.837646534162
 H    1.321992946706    0.809358380750   -1.727503544957
 H    2.112235492296    1.361973918975   -0.223466946775
 O    0.127696618025    1.014957105853   -0.045666755483
 H   -0.677161660751    0.972597854891   -0.590708230131
 C   -0.185020813831   -1.000035787554    1.563089861595
 H   -0.342411973867   -2.070540586736    1.722406324168
 H    0.909101864615   -1.044330251665   -0.350400668793
13

 C   -0.098586538542   -0.824286266622    0.066888827337
 O   -1.090615607197   -0.830386118080   -0.659387365948
 H    0.723530674345   -0.690952333749    2.077629976610
 H   -1.049481719559   -0.463011984254    1.953212203646
 H    1.085636060882    2.481099831511   -1.141051697054
 C    1.220239146046    1.441698341689   -0.839586072997
 H    1.320689630664    0.807800078520   -1.726298272303
 H    2.116254357005    1.362230681918   -0.226688010577
 O    0.131444730200    1.030877127006   -0.042720158209
 H   -0.676271371181    1.007347897605   -0.581133377496
 C   -0.186264265625   -1.001213227845    1.562801052416
 H   -0.340211119424   -2.070695118919    1.733225113839
 H    0.905082618880   -1.045902282282   -0.353570690810
13

 C   -0.104502395825   -0.839645007781    0.065446370458
 O   -1.092505981021   -0.839560412132   -0.659356535975
 H    0.724252960195   -0.685371991235    2.069103214587
 H   -1.049695367288   -0.462242520927    1.952179273414
 H    1.099599389591    2.484798716984   -1.150232207561
 C    1.223676679333    1.445861578703   -0.841686165991
 H    1.319092641308    0.806328567063   -1.725180332544
 H    2.120593168983    1.362490925904   -0.230333113369
 O    0.135142520831    1.047229873653   -0.039648208755
 H   -0.674966411612    1.037571685831   -0.572152679812
 C   -0.187592114917   -1.002624796789    1.562526365842
 H   -0.337954245649   -2.070845383184    1.744737620681
 H    0.900941433038   -1.048630222572   -0.356588710252
13

 C   -0.110078080515   -0.855216130066    0.064276280377
 O   -1.094593258114   -0.848519547788   -0.659440936843
 H    0.724668134349   -0.679678396257    2.060587893063
 H   -1.050101801100   -0.461476103959    1.950589641274
 H    1.113497577201    2.488389526974   -1.159601271955
 C    1.227177803868    1.450121178364   -0.843920000156
 H    1.317200101047    0.804939807694   -1.724133076140
 H    2.125116658390    1.362757245782   -0.234321725371
 O    0.138807933253    1.063903882485   -0.036501650685
 H   -0.673211620295    1.064296042407   -0.564044463524
 C   -0.188995760762   -1.004254826330    1.562279411872
 H   -0.335658383819   -2.070984855731    1.756727319140
 H    0.896721152863   -1.052491280364   -0.359399526815
13

 C   -0.115378287587   -0.870947921814    0.063321884143
 O   -1.096807052611   -0.857256876669   -0.659584271552
 H    0.724753476673   -0.673944478377    2.052179843022
 H   -1.050746916716   -0.460805162013    1.948499828846
 H    1.127199608126    2.491859683175   -1.169090151654
 C    1.230709554627    1.454449820201   -0.846266154247
 H    1.315030579249    0.803636474717   -1.723138590950
 H    2.129747487695    1.363048614473   -0.238590322581
 O    0.142460077414    1.080822326536   -0.033323495086
 H   -0.671038424583    1.088348146884   -0.556836826458
 C   -0.190475051338   -1.006089994911    1.562066286080
 H   -0.333325163664   -2.071116181152    1.769035197797
 H    0.892453884713   -1.057488955469   -0.361982258626
13

 C   -0.120442577950   -0.886786877278    0.062544485318
 O   -1.099107993816   -0.865788204174   -0.659749952090
 H    0.724499718869   -0.668204708337    2.043933437263
 H   -1.051663949298   -0.460308377568    1.945969456732
 H    1.140634072397    2.495207549793   -1.178653861229
 C    1.234257858490    1.458837134681   -0.848709119413
 H    1.312611741984    0.802426420039   -1.722178512829
 H    2.134444277300    1.363392831065   -0.243081050114
 O    0.146108150141    1.097930249789   -0.030149964456
 H   -0.668468074694    1.110293108069   -0.550408551986
 C   -0.192031318115   -1.008114862504    1.561889106065
 H   -0.330938484837   -2.071239014789    1.781545918134
 H    0.888156068378   -1.063683985547   -0.364332905843
13

 C   -0.125292562110   -0.902659397895    0.061914301507
 O   -1.101475091578   -0.874148885192   -0.659913245413
 H    0.723897215972   -0.662479809082    2.035879716902
 H   -1.052886074584   -0.460066108311    1.943055022447
 H    1.153763982409    2.498432564988   -1.188268132057
 C    1.237816010404    1.463270777411   -0.851236855455
 H    1.309960053489    0.801300798866   -1.721232247583
 H    2.139172599307    1.363807199385   -0.247747145037
 O    0.149767585955    1.115200260861   -0.027003708480
 H   -0.665625733947    1.130543929861   -0.544669036564
 C   -0.193669721306   -1.010328312810    1.561748031832
 H   -0.328473208495   -2.071361543949    1.794173456892
 H    0.883846004573   -1.071134809420   -0.366458929444
13

 C   -0.129946959858   -0.918486308268    0.061408444040
 O   -1.103897263815   -0.882383936594   -0.660056877376
 H    0.722928158008   -0.656777089218    2.028042431188
 H   -1.054443378910   -0.460161422378    1.939814298439
 H    1.166579915760    2.501531705462   -1.197926683365
 C    1.241382153695    1.467744361253   -0.853843259719
 H    1.307075420359    0.800240664021   -1.720275396769
 H    2.143910425837    1.364304746894   -0.252556471911
 O    0.153454551230    1.132612836675   -0.023899959117
 H   -0.662567854732    1.149426608251   -0.539472647330
 C   -0.195397634071   -1.012727436026    1.561641101426
 H   -0.325896825442   -2.071503553762    1.806829996251
 H    0.879527415165   -1.079925346185   -0.368371662918
13

 C   -0.134427069890   -0.934212797167    0.061009498550
 O   -1.106369244374   -0.890532709018   -0.660169694266
 H    0.721576644823   -0.651075688028    2.020438849109
 H   -1.056370793735   -0.460663225864    1.936303560695
 H    1.179077948072    2.504516805927   -1.207629582400
 C    1.244959331625    1.472265315743   -0.856526699836
 H    1.303950168056    0.799239544163   -1.719282515130
 H    2.148655339340    1.364909795016   -0.257490050799
 O    0.157186734143    1.150140509699   -0.020845543417
 H   -0.659343211154    1.167206155745   -0.534684144889
 C   -0.197221187102   -1.015298559615    1.561564365671
 H   -0.323165023031   -2.071672647819    1.819432629063
 H    0.875195669184   -1.090138078055   -0.370075073007
13

 C   -0.138742610108   -0.949763124990    0.060705495752
 O   -1.108886169666   -0.898633959244   -0.660242673812
 H    0.719820577890   -0.645360891335    2.013091797043
 H   -1.058704350313   -0.461654086544    1.932578784793
 H    1.191239176442    2.507391766370   -1.217373511766
 C    1.248542026024    1.476826908090   -0.859283058408
 H    1.300571878323    0.798276032567   -1.718236119222
 H    2.153396302472    1.365636372497   -0.262536002809
 O    0.160981424364    1.167760814787   -0.017848755325
 H   -0.655997677361    1.184054334514   -0.530196520652
 C   -0.199146955970   -1.018034754737    1.561514550018
 H   -0.320232083342   -2.071891179791    1.831891004337
 H    0.870859530392   -1.101783598339   -0.371576377466
13

 C   -0.142901330284   -0.965060080385    0.060491246881
 O   -1.111441071423   -0.906736997885   -0.660265207046
 H    0.717622079731   -0.639636404176    2.006040599976
 H   -1.061493153202   -0.463246394913    1.928708418833
 H    1.203064500893    2.510131278034   -1.227182939994
 C    1.252115214978    1.481405086870   -0.862114951888
 H    1.296917842091    0.797304916102   -1.717115913008
 H    2.158125569461    1.366474497238   -0.267695908472
 O    0.164863443042    1.185491573633   -0.014914689614
 H   -0.652534785882    1.200107082564   -0.525909625498
 C   -0.201187935575   -1.020942587295    1.561486268878
 H   -0.317054664387   -2.072211084193    1.844079034697
 H    0.866517071652   -1.114804346084   -0.372882111723
13

 C   -0.146923258882   -0.980067657518    0.060366780317
 O   -1.114021740952   -0.914860853530   -0.660232914015
 H    0.714947181293   -0.633885896862    1.999332966332
 H   -1.064787580152   -0.465543428748    1.924759665078
 H    1.214543459987    2.512725867010   -1.237087424947
 C    1.255666144549    1.485990049630   -0.865031355054
 H    1.292971271835    0.796297557424   -1.715914978865
 H    2.162841444673    1.367433065993   -0.272990097026
 O    0.168857850567    1.203312712102   -0.012037648862
 H   -0.648989713163    1.215533342395   -0.521746423517
 C   -0.203353569369   -1.024006029096    1.561473379180
 H   -0.313581492812   -2.072670020602    1.855852664799
 H    0.862176776083   -1.129097697111   -0.373977465086
13

 C   -0.150833898372   -0.994810338530    0.060333560733
 O   -1.116614619164   -0.922999827608   -0.660151528903
 H    0.711766187363   -0.628042604321    1.992978400124
 H   -1.068636541277   -0.468610621087    1.920785603509
 H    1.225633099590    2.515199944225   -1.247095102208
 C    1.259183044062    1.490597842347   -0.868040749616
 H    1.288746821055    0.795282383075   -1.714640700586
 H    2.167550288325    1.368561185603   -0.278447661396
 O    0.172985890879    1.221174356071   -0.009207735110
 H   -0.645375568034    1.230505422976   -0.517609380395
 C   -0.205648482865   -1.027190511144    1.561471554227
 H   -0.309742834818   -2.073270226752    1.867138154512
 H    0.857829095270   -1.144547060122   -0.374835217660
13

 C   -0.154645418528   -1.009267230824    0.060393930245
 O   -1.119204420367   -0.931160171755   -0.660030848494
 H    0.708051896911   -0.622051869415    1.986977044582
 H   -1.073078853149   -0.472537146113    1.916839887474
 H    1.236271606817    2.517550515355   -1.257205729509
 C    1.262637307212    1.495219071453   -0.871146150814
 H    1.284280757990    0.794270490180   -1.713311716195
 H    2.172246914689    1.369890245334   -0.284086013544
 O    0.177271676586    1.239059180847   -0.006418789608
 H   -0.641688609285    1.245086296953   -0.513402901409
 C   -0.208082342297   -1.030489044535    1.561480264893
 H   -0.305468140913   -2.074039261506    1.877886904014
 H    0.853471814852   -1.161038783078   -0.375448299977
13

 C   -0.158360866794   -1.023370855240    0.060551510232
 O   -1.121773989769   -0.939356462053   -0.659881024792
 H    0.703760399764   -0.615903642850    1.981351114704
 H   -1.078161578486   -0.477449041929    1.912998847812
 H    1.246420484913    2.519734336005   -1.267458062904
 C    1.265997940708    1.499811896355   -0.874354356850
 H    1.279604028753    0.793218685317   -1.711931440593
 H    2.176916223514    1.371416749110   -0.289924692464
 O    0.181737572829    1.256984256158   -0.003659891285
 H   -0.637937013294    1.259274546015   -0.509066958595
 C   -0.210668861930   -1.033923230312    1.561500514053
 H   -0.300695035801   -2.075042385748    1.888006117070
 H    0.849105760276   -1.178387914193   -0.375807100472
13

 C   -0.161995546880   -1.037105389994    0.060808371739
 O   -1.124307045853   -0.947575292822   -0.659717699056
 H    0.698846464565   -0.609557270559    1.976109586603
 H   -1.083926697084   -0.483455038140    1.909328243115
 H    1.256047231403    2.521726588137   -1.277907011041
 C    1.269253463883    1.504362284241   -0.877676147664
 H    1.274759611187    0.792095517536   -1.710492800243
 H    2.181560503375    1.373171479781   -0.295986193730
 O    0.186394502760    1.274932653021   -0.000913601367
 H   -0.634124322369    1.273123497891   -0.504540346240
 C   -0.213417867691   -1.037503291406    1.561536094378
 H   -0.295349135413   -2.076322834080    1.897439080018
 H    0.844738691809   -1.196354645853   -0.375890506433
13

 C   -0.165581490048   -1.050537681824    0.061165414550
 O   -1.126790860084   -0.955765614110   -0.659562927289
 H    0.693273039376   -0.602890958932    1.971208365020
 H   -1.090402775567   -0.490611222049    1.905860947316
 H    1.265080129965    2.523564294315   -1.288573773944
 C    1.272404143292    1.508910659815   -0.881113698420
 H    1.269832891003    0.790940243419   -1.708990054725
 H    2.186199108376    1.375267378817   -0.302278715463
 O    0.191254656233    1.292829549178    0.001830932790
 H   -0.630258626803    1.286742717385   -0.499764936241
 C   -0.216334591579   -1.041210664352    1.561595226808
 H   -0.289327350816   -2.077857585002    1.906236610395
 H    0.840353246354   -1.214855636838   -0.375677478657
13

 C   -0.169148818730   -1.063727628666    0.061621972290
 O   -1.129217459875   -0.963872349309   -0.659438545151
 H    0.686994135048   -0.595762541059    1.966561073391
 H   -1.097611480272   -0.498959742691    1.902612866011
 H    1.273411118608    2.525296881735   -1.299453779371
 C    1.275444546136    1.513503185257   -0.884656403294
 H    1.264935456167    0.789801261149   -1.707419714217
 H    2.190843698910    1.377852619899   -0.308795846577
 O    0.196345045368    1.310597341678    0.004574035751
 H   -0.626380376464    1.300184860441   -0.494722885059
 C   -0.219428794447   -1.045037980873    1.561689092050
 H   -0.282518071685   -2.079601123420    1.914522512211
 H    0.835915070762   -1.233901749319   -0.375163744223
13

 C   -0.172711085893   -1.076655245277    0.062177193770
 O   -1.131576581593   -0.971845010198   -0.659361901787
 H    0.679953769591   -0.588096409676    1.962113223241
 H   -1.105566127361   -0.508571855430    1.899619021400
 H    1.280945554949    2.526921753037   -1.310570124071
 C    1.278363635915    1.518142988960   -0.888292744724
 H    1.260150068835    0.788657928613   -1.705752564028
 H    2.195503803185    1.381034895685   -0.315526559849
 O    0.201675085580    1.328175977227    0.007308318427
 H   -0.622370283370    1.313377657393   -0.489337581169
 C   -0.222712021851   -1.049005646456    1.561828178619
 H   -0.274836612394   -2.081545289648    1.922362783382
 H    0.831409774351   -1.253398119142   -0.374348865410
13

 C   -0.176293726078   -1.089358330683    0.062834408470
 O   -1.133861234671   -0.979642564164   -0.659349856256
 H    0.672070769571   -0.579800612553    1.957813366840
 H   -1.114297741332   -0.519544883554    1.896900652776
 H    1.287619351904    2.528437718111   -1.322005529653
 C    1.281167262495    1.522854598576   -0.892032107736
 H    1.255502698940    0.787472165690   -1.703942321550
 H    2.200212499233    1.384930668182   -0.322503860923
 O    0.207273663141    1.345542962255    0.010049992744
 H   -0.618305643565    1.326258506371   -0.483644462918
 C   -0.226203493753   -1.053135211997    1.562023607738
 H   -0.266182999270   -2.083669334792    1.929826560807
 H    0.826824565243   -1.273254319331   -0.373216933285
13

 C   -0.179905609794   -1.101827271749    0.063598017547
 O   -1.136040184268   -0.987145475139   -0.659421910194
 H    0.663270389360   -0.570785262832    1.953612464592
 H   -1.123805619093   -0.531917460306    1.894481046866
 H    1.293247047375    2.529877420442   -1.333768355480
 C    1.283833123785    1.527667852840   -0.895872253841
 H    1.251051505851    0.786257456329   -1.701964400556
 H    2.204980350527    1.389709140744   -0.329754348867
 O    0.213162444992    1.362523304445    0.012808407321
 H   -0.614493564748    1.338635860028   -0.477814822425
 C   -0.229909300102   -1.057416771249    1.562290842470
 H   -0.256478609910   -2.085905306354    1.936992696681
 H    0.822182799605   -1.293320907215   -0.371741420358
13

 C   -0.183536171947   -1.114053052413    0.064468643283
 O   -1.138078312545   -0.994241777610   -0.659587079367
 H    0.653590233634   -0.561034652735    1.949478710388
 H   -1.133981225033   -0.545555311101    1.892347361337
 H    1.297689331648    2.531276066757   -1.345813683628
 C    1.286333753033    1.532608193669   -0.899812352961
 H    1.246843733429    0.785035560419   -1.699843284183
 H    2.209817161494    1.395475855758   -0.337281243210
 O    0.219212117572    1.378919596684    0.015524559572
 H   -0.609396502876    1.350425132105   -0.470964555302
 C   -0.233815386196   -1.061808203802    1.562637694358
 H   -0.245784191077   -2.088140081638    1.943957597478
 H    0.817472654044   -1.313494696075   -0.369906207350
13

 C   -0.187207485859   -1.126110342763    0.065463207845
 O   -1.139948818701   -1.000904149652   -0.659855950335
 H    0.642871434339   -0.550498299769    1.945337915844
 H   -1.144875517100   -0.560552390254    1.890489380514
 H    1.300774568305    2.532645256489   -1.358286353767
 C    1.288639445193    1.537711046327   -0.903908239510
 H    1.242850157362    0.783774901570   -1.697549567497
 H    2.214733192884    1.402410286726   -0.345249664882
 O    0.225631388411    1.394772895111    0.018313174034
 H   -0.605224324290    1.361463842512   -0.464303325125
 C   -0.237969757822   -1.066352482065    1.563082226368
 H   -0.234042449446   -2.090315401593    1.950850035816
 H    0.812697552232   -1.333893752653   -0.367669940045
