13

 C   -0.171818568325   -1.073442658327    0.062028832942
 O   -1.130992781896   -0.969863931718   -0.659375750116
 H    0.681792180466   -0.590069716827    1.963209432088
 H   -1.103503142393   -0.506041598515    1.900342318279
 C   -0.221871568643   -1.047998499203    1.561788591704
 H   -0.276846541880   -2.081039904512    1.920441111692
 H    0.832546014324   -1.248474213831   -0.374582250055
 H    1.279137421713    2.526525906289   -1.307760939364
 C    1.277643969312    1.516976531868   -0.887373566892
 H    1.261335813304    0.788947063825   -1.706181965712
 H    2.194335858569    1.380176498151   -0.313819708088
 O    0.200310752910    1.323794113557    0.006620429342
 H   -0.623285270797    1.310103881948   -0.490658214728
