13

 C    0.138370749840    0.333907000403   -1.550155574641
 O   -0.943476780508    0.238664122124   -2.329434282964
BR    1.580178567671    0.458170981259    0.882727429813
BR   -1.600471080671    0.641622963454    0.721204448102
 C   -0.016526271851   -0.115899539491   -0.077551386559
BR   -0.113787072842   -2.055971361841   -0.083561099549
 H    1.078110413954   -0.067115677076   -1.944003048115
 H    1.090246425822    3.538941163776   -2.358628950506
 C    1.328208724902    2.481853425657   -2.215607690298
 H    1.515956950927    2.011791471651   -3.184000544855
 H    2.206557136469    2.388182332862   -1.576059753810
 O    0.206795223890    1.878825432804   -1.567817851141
 H   -0.965553576235    1.249363757594   -2.376934883588
