13

 C    0.000555629929   -0.496630451041    0.082486312608
 O   -1.083487881555   -0.835804955031   -0.747473408977
 H    0.682841987941   -0.722950281687    2.107024708471
 H   -1.049921678659   -0.392548680896    1.949918309429
 C   -0.208302227976   -0.938126328311    1.515951490317
 H   -0.419476737948   -2.007119014373    1.550143468104
 H    0.864510764745   -1.005552855560   -0.358574221901
 H    1.047245428692    2.429304193689   -0.933802090989
 C    1.173076501317    1.352028915984   -0.837266759228
 H    1.043718656568    0.887446946157   -1.819752312999
 H    2.182007658255    1.142890523352   -0.464663505120
 O    0.199594583473    0.893596242027    0.080015082710
 H   -1.816915794960   -0.263633996931   -0.500379570862
