13

 C   -0.039339400270   -0.371351635036   -1.203178500889
 O   -1.026060665801   -0.485518701393   -1.856024595470
CL    1.397247960597    0.364338383748    1.021877543185
CL   -1.501870162094    0.299297659256    1.027538840858
 C   -0.047371818938   -0.411708628119    0.345552674809
CL    0.027050460457   -2.171369986417    0.655192952413
 H    0.985862189687   -0.367822019369   -1.611921656544
 H    1.149367013301    3.375337596336   -2.418305155906
 C    1.176798298330    2.339582245984   -2.071710921269
 H    1.206378673362    1.672104951450   -2.940325695931
 H    2.080091195959    2.192942810134   -1.480092829510
 O    0.083009504860    2.044835874975   -1.219577809129
 H   -0.742739445086    2.161065526535   -1.700964604154
