13

 C    0.046552341653    0.113744494210   -1.179481768576
 O   -1.021009268287   -0.388311722812   -1.899630991770
CL    1.424571981872    0.381852059738    1.124289842443
CL   -1.492588355037    0.333177900914    1.063750095552
 C   -0.010984664538   -0.301791909323    0.324076605085
CL    0.023272578751   -2.069986759854    0.500071489278
 H    0.960955379272   -0.330311589499   -1.586226306873
 H    0.817022881489    3.129773183505   -2.150095024985
 C    1.106365632551    2.095325907159   -1.977205070538
 H    1.238243505996    1.592371027145   -2.939456078688
 H    2.040486287338    2.067676986402   -1.409279316056
 O    0.054779651761    1.499677407609   -1.232107875144
 H   -1.766256286155    0.206075532760   -1.754899200428
