13

 C   -0.089690318051   -0.533070952799   -0.836463004752
 O   -1.106255694760   -0.617578122841   -1.459928787807
 F    1.046338940015   -0.026387966378    1.220294046541
 F   -1.108275631847    0.072566117777    1.254404615008
 C   -0.073704659827   -0.541309800388    0.702350694013
 F   -0.109402389603   -1.840673586035    1.041120027234
 H    0.918559383431   -0.653400519688   -1.271054526750
 H    1.252810259925    3.014399987164   -1.946480822512
 C    1.283739985108    1.965015634667   -1.648032841687
 H    1.359876384072    1.335509783762   -2.541097772316
 H    2.156974353018    1.803341171799   -1.017764652184
 O    0.152169678380    1.623537193727   -0.865529253360
 H   -0.656044079284    1.758056049543   -1.373525280020
