13

 C    0.133959609215    0.468231658857   -1.560442914461
 O   -0.951811834026    0.132183191692   -2.351641434690
BR    1.579864047609    0.457243458216    0.883009954014
BR   -1.601432589481    0.643606867790    0.721261777986
 C   -0.007756180884   -0.088655151887   -0.102431930910
BR   -0.113359638518   -2.040748483069   -0.093532975737
 H    1.024429471342   -0.007139219311   -1.985693649548
 H    1.112457054282    3.493632399886   -2.291543159371
 C    1.339286154410    2.433755746135   -2.195651513536
 H    1.443295425438    1.995130638322   -3.192142178133
 H    2.267720876864    2.308350560429   -1.631808700513
 O    0.250470087131    1.850952915231   -1.492490181573
 H   -1.600802533539    0.837634147413   -2.246136260385
