13

 C    0.058101893932    0.205976139615   -1.604397534984
 O   -0.929717751256    0.154161927615   -2.315064718475
BR    1.579619965433    0.458547911397    0.881100875178
BR   -1.601066046043    0.641889175919    0.721418919516
 C   -0.023497800942   -0.119015981334   -0.076141513204
BR   -0.113332013506   -2.057211967521   -0.082241279214
 H    1.084744843840   -0.012756094399   -1.959579427104
 H    1.186470731402    3.576469616512   -2.404105992885
 C    1.346270124268    2.513631667797   -2.228110417682
 H    1.508245374847    1.991585197679   -3.175008157288
 H    2.199493180381    2.375550303862   -1.568185043194
 O    0.218824064172    1.985178305978   -1.548061905725
 H   -0.584509547516    2.072292295685   -2.089190024948
