13

 C   -0.092238699428   -0.809205299916    0.068684881272
 O   -1.089036883807   -0.821029679376   -0.659616537814
 H    0.722543522420   -0.696308371519    2.086005768135
 H   -1.049400152559   -0.463686505580    1.953639294497
 C   -0.185020813831   -1.000035787554    1.563089861595
 H   -0.342411973867   -2.070540586736    1.722406324168
 H    0.909101864615   -1.044330251665   -0.350400668793
 H    1.071828899650    2.477300010731   -1.132162853985
 C    1.216925229808    1.437678385492   -0.837646534162
 H    1.321992946706    0.809358380750   -1.727503544957
 H    2.112235492296    1.361973918975   -0.223466946775
 O    0.127696618025    1.014957105853   -0.045666755483
 H   -0.677161660751    0.972597854891   -0.590708230131
