13

 C    0.055228549870    0.106711795290   -1.183387673022
 O   -1.039011916547   -0.345080814372   -1.899056758718
CL    1.423603456157    0.379495171270    1.120924010283
CL   -1.489067986255    0.326364250252    1.062757370308
 C   -0.015581595538   -0.314431226838    0.327316309866
CL    0.025013962109   -2.089811809827    0.527522475243
 H    0.973311905397   -0.341721341250   -1.581208152169
 H    0.759521424221    3.136000780461   -2.188358102815
 C    1.100810717742    2.123375701273   -1.982435884257
 H    1.295185707310    1.608570201656   -2.927963966943
 H    2.013569035273    2.160861090826   -1.382493255943
 O    0.054436771045    1.492791618486   -1.260661802827
 H   -1.591372840139    0.431368180555   -2.046905619977
