13

 C    0.142004770020    0.462829105047   -1.559512041760
 O   -0.961369791040    0.169556864496   -2.343301779783
BR    1.579961756581    0.457621211780    0.882860254329
BR   -1.600697190259    0.642049464022    0.721224223817
 C   -0.012049508532   -0.094865893047   -0.097417989513
BR   -0.113848649137   -2.051352922435   -0.086721574863
 H    1.036083382282   -0.016712242544   -1.975946901449
 H    1.074127715350    3.503333144212   -2.322969336487
 C    1.336884910193    2.454297943546   -2.200826239938
 H    1.490008143627    2.002937100197   -3.185613317058
 H    2.250612141405    2.374288420298   -1.606469945424
 O    0.246227867489    1.849727453892   -1.521779547667
 H   -1.427738266058    1.006508970177   -2.451714392985
