13

 C    0.022808111205    0.029180155344   -1.610314228049
 O   -0.944506237526    0.049400954771   -2.305426433645
BR    1.560775970737    0.455744276172    0.841636529102
BR   -1.604402943976    0.640630230262    0.709943422182
 C   -0.042194101890   -0.154641692334   -0.076054969427
BR   -0.112281648536   -2.102088598689   -0.045006313787
 H    1.059609449088   -0.026598053994   -1.985119888088
 H    1.453490167048    3.695793869978   -2.549170952889
 C    1.420604384247    2.640570926089   -2.268550431355
 H    1.423436538965    2.027358484991   -3.176695166738
 H    2.306094839877    2.407098319521   -1.677904402896
 O    0.301405880905    2.355980783408   -1.447359331171
 H   -0.511711879576    2.527255727702   -1.934268240537
