5
Full IRC Point -18
 C   -0.006432324098    0.112893193496   -0.021903884692
 O   -1.133083059452   -0.248844160176   -0.028758842982
 O    1.117080222511    0.479645157422   -0.016236413127
 H    0.524233849008   -2.595789998044    0.529164346323
 H   -0.193668632716   -2.411389230925    0.445748822920
5
Full IRC Point -17
 C   -0.002101646491    0.099952991948   -0.019140714606
 O   -1.132464137687   -0.249618499827   -0.028573275021
 O    1.115881125532    0.482887818044   -0.016938030115
 H    0.506206930865   -2.526923746544    0.514869639580
 H   -0.217998549235   -2.365352764484    0.435333009367
5
Full IRC Point -16
 C    0.003390651307    0.083800041084   -0.015685839788
 O   -1.131888226427   -0.248807929424   -0.028693120123
 O    1.113800955096    0.487535809633   -0.017967094185
 H    0.487435187636   -2.465518340418    0.501942623488
 H   -0.240748970243   -2.321059091934    0.425357445175
5
Full IRC Point -15
 C    0.009489166981    0.066065686986   -0.011888455990
 O   -1.131112993740   -0.246998799825   -0.028989980769
 O    1.110950904927    0.492747698279   -0.019155470950
 H    0.468950048726   -2.409345891332    0.490028592041
 H   -0.261948953593   -2.277500279525    0.415628473819
5
Full IRC Point -14
 C    0.015888628151    0.047682121470   -0.007947233943
 O   -1.130069019358   -0.244666558250   -0.029368424371
 O    1.107516410255    0.498090280407   -0.020407982945
 H    0.450773542648   -2.356206131165    0.478710698369
 H   -0.282030443574   -2.233555096136    0.405903360664
5
Full IRC Point -13
 C    0.022436033043    0.029157182199   -0.003969480643
 O   -1.128853093497   -0.242157766140   -0.029768852176
 O    1.103745387570    0.503376907259   -0.021672317724
 H    0.432754114066   -2.304534469333    0.467681362375
 H   -0.301418602558   -2.188372435633    0.395991259839
5
Full IRC Point -12
 C    0.029069777995    0.010788943258   -0.000016256628
 O   -1.127677677201   -0.239742268804   -0.030154107424
 O    1.099927291999    0.508548150937   -0.022917651901
 H    0.414741506056   -2.253263997302    0.456727702729
 H   -0.320451621399   -2.141342518830    0.385753195877
5
Full IRC Point -11
 C    0.035803786745   -0.007218100988    0.003874355419
 O   -1.126816577151   -0.237640366608   -0.030500622902
 O    1.096348475813    0.513602367268   -0.024124397847
 H    0.396629417409   -2.201697268348    0.445710016604
 H   -0.339388094032   -2.092075250940    0.375097416855
5
Full IRC Point -10
 C    0.042730805854   -0.024686567174    0.007674780486
 O   -1.126547910956   -0.236026859384   -0.030793803135
 O    1.093232999979    0.518547222315   -0.025278939247
 H    0.378377406268   -2.149442480495    0.434551133996
 H   -0.358433977842   -2.040421973082    0.363981682161
5
Full IRC Point -9
 C    0.050008648899   -0.041430031399    0.011360108228
 O   -1.127091077165   -0.235023336402   -0.031025245363
 O    1.090690817387    0.523361358475   -0.026369798797
 H    0.360024261915   -2.096367469026    0.423228593574
 H   -0.377770139368   -1.986465896805    0.352409545295
5
Full IRC Point -8
 C    0.057810531669   -0.057269002819    0.014907800910
 O   -1.128555897651   -0.234689620852   -0.031190947897
 O    1.088707990363    0.527990196477   -0.027387506350
 H    0.341682761252   -2.042525548145    0.411760219327
 H   -0.397607652368   -1.930475224557    0.340417727430
5
Full IRC Point -7
 C    0.066244344635   -0.072062021493    0.018298196189
 O   -1.130910785002   -0.235027046697   -0.031288546274
 O    1.087178845939    0.532360558536   -0.028325220802
 H    0.323572417921   -1.988076942868    0.400191414806
 H   -0.418274872330   -1.872791515107    0.328048842097
5
Full IRC Point -6
 C    0.075300088647   -0.085732944193    0.021516147418
 O   -1.133998832875   -0.235997069323   -0.031314838411
 O    1.085964867946    0.536407933303   -0.029179973918
 H    0.306197117216   -1.933236543520    0.388597288082
 H   -0.440448491791   -1.813694391585    0.315310202346
5
Full IRC Point -5
 C    0.084839773737   -0.098248109952    0.024545993561
 O   -1.137578280974   -0.237548747916   -0.031263271113
 O    1.084943929922    0.540086739445   -0.029951305637
 H    0.291067322713   -1.878410657042    0.377157558291
 H   -0.465894627152   -1.753263401232    0.302097256841
5
Full IRC Point -4
 C    0.094558019047   -0.109553122861    0.027356872936
 O   -1.141330151276   -0.239618568774   -0.031124477052
 O    1.084035904248    0.543364019762   -0.030638339629
 H    0.281813376755   -1.824697950286    0.366327208056
 H   -0.498398232478   -1.691532513867    0.288159913463
5
Full IRC Point -3
 C    0.103994531457   -0.119613332506    0.029911311328
 O   -1.144909413427   -0.242070454147   -0.030901136067
 O    1.083212369263    0.546243570285   -0.031243744892
 H    0.282044788796   -1.773916522424    0.356696587629
 H   -0.541112995584   -1.629316105237    0.273438910924
5
Full IRC Point -2
 C    0.113046477165   -0.128629211570    0.032240480427
 O   -1.148230929563   -0.244727278116   -0.030621258673
 O    1.082411406953    0.548785303174   -0.031783059240
 H    0.290199182653   -1.726605640842    0.348261696826
 H   -0.591620631683   -1.567449880415    0.258258237034
5
Full IRC Point -1
 C    0.122563255255   -0.136906848450    0.034455989470
 O   -1.152014522704   -0.247079402717   -0.030430199017
 O    1.081330804281    0.550933622490   -0.032264187040
 H    0.308605828425   -1.685764391733    0.341734867750
 H   -0.646143606370   -1.506496187526    0.243008971426
5
Full IRC Point 0
 C    0.129784282576   -0.143510260831    0.036169063544
 O   -1.154576717424   -0.249347260831   -0.030168936456
 O    1.080794282576    0.552841739169   -0.032650936456
 H    0.341376282576   -1.653519260831    0.337787063544
 H   -0.715714717424   -1.454406260831    0.228551063544
5
Full IRC Point 1
 C    0.134698715505   -0.151025363114    0.037941882147
 O   -1.155678141712   -0.252214795328   -0.029699630186
 O    1.081320831201    0.555607655622   -0.033146926538
 H    0.363380814931   -1.613747456079    0.331719215176
 H   -0.787110866776   -1.403084278070    0.213933755993
5
Full IRC Point 2
 C    0.140658375976   -0.159293676933    0.039916978244
 O   -1.157038083010   -0.254744858717   -0.029310612395
 O    1.081658374439    0.558768157083   -0.033726001242
 H    0.381698948524   -1.567967305653    0.324253590780
 H   -0.860163457464   -1.360420542054    0.200898590658
5
Full IRC Point 3
 C    0.148127215378   -0.168097857587    0.042094007601
 O   -1.158847066860   -0.256619949803   -0.029076351629
 O    1.081382891832    0.561894276052   -0.034339035266
 H    0.398423307384   -1.517387939592    0.315767584740
 H   -0.932736012235   -1.326024757729    0.189474487580
5
Full IRC Point 4
 C    0.156338358604   -0.177753759010    0.044482534101
 O   -1.160898183062   -0.257803454283   -0.028989958330
 O    1.080762635726    0.565209057105   -0.035010940177
 H    0.414447148712   -1.464271710922    0.306752697367
 H   -1.004131912135   -1.297994728191    0.179342093289
5
Full IRC Point 5
 C    0.164911351469   -0.188630399691    0.047127550047
 O   -1.163006295977   -0.258161451071   -0.029064512557
 O    1.079935461488    0.569011366145   -0.035789522717
 H    0.429608789171   -1.410656653637    0.297586785026
 H   -1.074785572764   -1.276767223159    0.170554153497
5
Full IRC Point 6
 C    0.173919421521   -0.200875259443    0.050062070626
 O   -1.165056908824   -0.257585769026   -0.029313014542
 O    1.078769207855    0.573546024069   -0.036730314612
 H    0.444762493275   -1.361601346659    0.289291900700
 H   -1.146142818271   -1.261129886612    0.162783160938
5
Full IRC Point 7
 C    0.183531978104   -0.214430376116    0.053286100895
 O   -1.166869663274   -0.256072121203   -0.029724174372
 O    1.076935337503    0.578980417634   -0.037887142959
 H    0.461510514742   -1.324485520274    0.283381126761
 H   -1.219471322290   -1.247117719863    0.155191069031
5
Full IRC Point 8
 C    0.193729379050   -0.229205007684    0.056780702928
 O   -1.168040234738   -0.253464980226   -0.030300370539
 O    1.073906773458    0.585278044604   -0.039288308255
 H    0.480214170685   -1.304904205766    0.280942239838
 H   -1.292950356545   -1.232105156788    0.147402489587
5
Full IRC Point 9
 C    0.204275153963   -0.245063860290    0.060504561888
 O   -1.167888457072   -0.249524298592   -0.031041868198
 O    1.068976799538    0.592005838336   -0.040899066284
 H    0.499372559248   -1.302117044795    0.281735378852
 H   -1.361842038345   -1.215380122644    0.139602004658
5
Full IRC Point 10
 C    0.214823960862   -0.261733044113    0.064382785623
 O   -1.165764959261   -0.244282144046   -0.031899030419
 O    1.061628630929    0.598451868529   -0.042618699328
 H    0.517080965534   -1.308502347650    0.284177840325
 H   -1.422233964163   -1.196017677411    0.131877808340
5
Full IRC Point 11
 C    0.224843813611   -0.278637658180    0.068270386645
 O   -1.161102253923   -0.237877348806   -0.032807248422
 O    1.051585247340    0.603983896210   -0.044345354404
 H    0.532656992489   -1.319154952254    0.287283635163
 H   -1.471719392736   -1.173530771255    0.124300361996
5
Full IRC Point 12
 C    0.233549944897   -0.294895112838    0.071947362687
 O   -1.153443247057   -0.230489912757   -0.033701829060
 O    1.038922924424    0.608095881801   -0.045977802770
 H    0.546008075618   -1.331851271102    0.290621561225
 H   -1.509326633058   -1.149763891321    0.117287096255
5
Full IRC Point 13
 C    0.240347330978   -0.309833579683    0.075245940092
 O   -1.142984134656   -0.222582234980   -0.034507992494
 O    1.024385373297    0.610701864578   -0.047449534653
 H    0.557008991584   -1.344416433535    0.293764727853
 H   -1.536535078357   -1.126188385929    0.111020185260
