13

 C    0.012178041597   -0.272827602152   -0.798335151853
 O   -1.084445378855   -0.417381050191   -1.489786864027
 F    1.062802037231   -0.024058016609    1.295007287930
 F   -1.097405223854    0.080509679832    1.275885806916
 C   -0.049719833478   -0.505194807442    0.713778297768
 F   -0.104486499368   -1.814313507811    0.969033202340
 H    0.963554549337   -0.665976253654   -1.190499847023
 H    0.974057721048    2.911294568939   -1.817638641694
 C    1.210489621145    1.866333085388   -1.613353158742
 H    1.401284058599    1.328601787766   -2.545446430349
 H    2.070516558329    1.804160633575   -0.951593460691
 O    0.083463522083    1.295396189683   -0.934181943778
 H   -0.867228304968    0.866121019565   -1.538730675854
