13
Coordinates from ORCA-job input_IRC_B
  C   0.35396080113409      1.01148478171846     -0.16537759451534
  H   -0.08597090406513      0.68692295269753     -1.10267344097173
  H   -0.00350688335755      1.94970131012439      0.23961849092982
  C   1.54496463058805      0.50892528305898      0.26685906247229
  H   2.04392805211845      0.94275723674546      1.12798327146201
  C   -1.42556221863631     -0.27295095048161      0.64909071254038
  H   -0.85738638556744     -1.17907833466658      0.81929229645617
  H   -1.78560537058152      0.25554051611036      1.53382094937831
  N   2.15454613086511     -0.64107736822499     -0.22164734585668
  H   1.79218731113108     -1.08650492595745     -1.05614108045428
  H   3.09558455761737     -0.87918041191666      0.05982677220610
  O   -2.32748173009619     -0.44347152226673     -0.43594748178248
  H   -2.83216117616373      0.40350485170509     -0.56100418951905
