13

 C    0.010898609255   -0.274416281877   -0.798869854215
 O   -1.083982777242   -0.418427198471   -1.489364867057
 F    1.062821258073   -0.024026859742    1.295011902807
 F   -1.097411036820    0.080527092808    1.275911506848
 C   -0.049793836517   -0.505242808474    0.713760889986
 F   -0.104469279074   -1.814301792289    0.969050099256
 H    0.964176228401   -0.664920905098   -1.190582029521
 H    0.974794519422    2.910923822143   -1.817830225121
 C    1.210458452480    1.866674760781   -1.613643075564
 H    1.401138828023    1.328302195632   -2.545260765430
 H    2.070077901003    1.803703589402   -0.950718938272
 O    0.083100111581    1.296071595333   -0.934381913530
 H   -0.853668254633    0.886359982654   -1.533904942774
