13

 C    0.059434011553    0.099571706279   -1.180447402645
 O   -1.040279421215   -0.329077569974   -1.898973841726
CL    1.423550428986    0.379621679993    1.120608777071
CL   -1.488559791347    0.325723727883    1.062608230867
 C   -0.016352284099   -0.319123581543    0.331646325135
CL    0.025325068195   -2.094213753186    0.531911606096
 H    0.978996815732   -0.350216993160   -1.574556177171
 H    0.748290273376    3.138216155067   -2.192142504613
 C    1.097158612570    2.128462563180   -1.984319629690
 H    1.303619485798    1.616190361491   -2.928900743460
 H    2.005460467509    2.174429000079   -1.378400944682
 O    0.051067915771    1.488974497379   -1.270669889126
 H   -1.536569345167    0.473946911341   -2.095724388766
