13

 C   -0.120442577950   -0.886786877278    0.062544485318
 O   -1.099107993816   -0.865788204174   -0.659749952090
 H    0.724499718869   -0.668204708337    2.043933437263
 H   -1.051663949298   -0.460308377568    1.945969456732
 C   -0.192031318115   -1.008114862504    1.561889106065
 H   -0.330938484837   -2.071239014789    1.781545918134
 H    0.888156068378   -1.063683985547   -0.364332905843
 H    1.140634072397    2.495207549793   -1.178653861229
 C    1.234257858490    1.458837134681   -0.848709119413
 H    1.312611741984    0.802426420039   -1.722178512829
 H    2.134444277300    1.363392831065   -0.243081050114
 O    0.146108150141    1.097930249789   -0.030149964456
 H   -0.668468074694    1.110293108069   -0.550408551986
