13

 C   -0.000897761879   -0.498114072745    0.079654159859
 O   -1.094707247501   -0.839631838362   -0.738274775309
 H    0.696386095317   -0.723789782277    2.100063962441
 H   -1.039879652420   -0.398782703601    1.953336087762
 C   -0.198349167268   -0.940055243431    1.514513116802
 H   -0.406158373986   -2.009779756740    1.547649916916
 H    0.861762175559   -1.005092641835   -0.366396584672
 H    1.034112054635    2.425737010561   -0.955030901973
 C    1.183878782302    1.354849679541   -0.826317032276
 H    1.101661425358    0.863288782654   -1.800734285777
 H    2.183708560023    1.181708393589   -0.413443739258
 O    0.189425700173    0.893565738537    0.067131215792
 H   -1.787959973773   -0.197186797589   -0.556570443656
