13

 C    0.053357512472   -0.040823161748   -1.166976628927
 O   -1.021816151275   -0.269042234715   -1.890867467328
CL    1.423679702301    0.380910092792    1.119494772777
CL   -1.487857296922    0.325310052816    1.062417454890
 C   -0.018916342806   -0.336767853289    0.349870361807
CL    0.026327479405   -2.100855357506    0.539059578193
 H    1.027995031580   -0.379030445678   -1.541077932139
 H    0.769128874413    3.177658621804   -2.226985098885
 C    1.086767199607    2.154096418115   -2.001279661134
 H    1.318947583421    1.619409566762   -2.928334948434
 H    1.951108521244    2.172849430925   -1.349171095752
 O    0.006863044077    1.515414506947   -1.312235200605
 H   -0.995875137678    0.865873787028   -1.971325801840
