13

 C   -0.040659183357   -0.350799739751   -0.823932793706
 O   -1.076237853157   -0.477789569587   -1.475388141745
 F    1.061071602336   -0.023313820472    1.289639861800
 F   -1.098431280228    0.081311948755    1.277525124616
 C   -0.054757692299   -0.506990599133    0.710357889132
 F   -0.103737382329   -1.815807407551    0.973072499301
 H    0.960321762872   -0.631960080905   -1.212930543607
 H    1.035416611552    2.933274421316   -1.846446022544
 C    1.222110674501    1.884994145030   -1.621240080895
 H    1.397578565881    1.319500064616   -2.539563504753
 H    2.073181807970    1.798622943946   -0.950275071031
 O    0.098658565961    1.366556594169   -0.922587187040
 H   -0.707150312212    1.380722313395   -1.473674284054
