13

 C   -0.127643030623   -0.910582533836    0.061647162450
 O   -1.102679655996   -0.878279620390   -0.659988341579
 H    0.723459663399   -0.659626258165    2.031933468268
 H   -1.053619932408   -0.460067644857    1.941472090660
 C   -0.194522126050   -1.011504862318    1.561690493956
 H   -0.327201287116   -2.071429643406    1.800502412263
 H    0.881687328608   -1.075363855348   -0.367442303626
 H    1.160211750197    2.499996861697   -1.193091960705
 C    1.239598026888    1.465502534382   -0.852530390414
 H    1.308546921233    0.800762690097   -1.720757063658
 H    2.141540627836    1.364044278713   -0.250135531946
 O    0.151606850824    1.123890487063   -0.025445771870
 H   -0.664125491582    1.140138610435   -0.542014387849
