13

 C   -0.016543502920   -0.696721784734    0.100450476393
 O   -1.102988869198   -0.754885189918   -0.677905768485
 H    0.713626759417   -0.717418289262    2.116311769896
 H   -1.047367338797   -0.458994547192    1.947405188657
 C   -0.181225251924   -0.998982340919    1.562318640357
 H   -0.353799798581   -2.071109696486    1.684104815691
 H    0.911361937274   -1.083015203194   -0.339118612079
 H    0.998849901214    2.457984571316   -1.088042411952
 C    1.205196789707    1.414173196040   -0.823695732769
 H    1.329980687037    0.827460849512   -1.740889690511
 H    2.120873277363    1.372136570433   -0.237085107993
 O    0.115417773730    0.927231528343   -0.051663912962
 H   -0.995328499433    0.289834833476   -0.754588707586
