13

 C   -0.103058283632   -0.835783043943    0.065778804920
 O   -1.092011244162   -0.837286028830   -0.659350692832
 H    0.724099674572   -0.686781650060    2.071238763054
 H   -1.049625811157   -0.462438716201    1.952491865782
 C   -0.187252985738   -1.002250969150    1.562592799575
 H   -0.338522623971   -2.070809067260    1.741807141443
 H    0.901985243023   -1.047841468622   -0.355852401208
 H    1.096107727575    2.483882798309   -1.147915792050
 C    1.222809358714    1.444810099075   -0.841147599190
 H    1.319520038384    0.806688517958   -1.725452548382
 H    2.119486960946    1.362425603377   -0.229386912098
 O    0.134221946298    1.043107854384   -0.040425097471
 H   -0.675334999396    1.030382028270   -0.574321876520
