13

 C   -0.014838982134   -0.184456358139   -1.207116722670
 O   -1.008953263328   -0.370869295458   -1.872011294889
CL    1.420381082141    0.380918682959    1.112607211170
CL   -1.489560299241    0.325664157985    1.063029774217
 C   -0.027494724909   -0.342215418770    0.348357145896
CL    0.027465279347   -2.105250108359    0.545310928434
 H    1.018245184517   -0.335062109977   -1.576552114632
 H    0.889564408959    3.226033722021   -2.288476649274
 C    1.110352129260    2.193674360467   -2.019276743212
 H    1.310091282190    1.604407212217   -2.918771130018
 H    1.971727688276    2.167286341097   -1.355564548036
 O    0.021724173373    1.653381799587   -1.289950730068
 H   -0.790935993155    1.664257022102   -1.819386308489
