13

 C   -0.096162603759   -0.562407417837   -0.837560704977
 O   -1.113349013955   -0.640757352943   -1.457208566070
 F    1.044662746743   -0.028578346844    1.200932336520
 F   -1.111585845721    0.068234227359    1.243911773281
 C   -0.077394902023   -0.553489384130    0.700849202769
 F   -0.111548216268   -1.846424401827    1.065668615537
 H    0.910919412379   -0.663582064753   -1.278789830210
 H    1.288308546609    3.032234302019   -1.957821777318
 C    1.294594302961    1.983846711060   -1.653097413512
 H    1.346183664244    1.349142706567   -2.544484160513
 H    2.171843384636    1.803469973553   -1.033281225627
 O    0.164643239635    1.672590530395   -0.854993692323
 H   -0.644255090780    1.827465448062   -1.354651679158
