13

 C    0.063491490579   -0.018028829917   -1.162800871105
 O   -1.027412175935   -0.267776623316   -1.894513527891
CL    1.423563345990    0.380755515639    1.119461791797
CL   -1.487825713091    0.325280658566    1.062323844654
 C   -0.018491535509   -0.336089397942    0.348876606787
CL    0.026219515098   -2.100915343441    0.538935337887
 H    1.021163524830   -0.390672699751   -1.543949919754
 H    0.763838647149    3.169371118520   -2.222449397789
 C    1.086772718374    2.150700604154   -1.998363382325
 H    1.319987907842    1.623714529009   -2.929847286360
 H    1.964066875948    2.178980547596   -1.354898603852
 O    0.013807666129    1.509341284041   -1.307916386247
 H   -1.138255207227    0.721079340195   -2.040334766768
