13

 C    0.041356159097   -0.141648866357   -0.801976687689
 O   -1.109398307772   -0.448835199404   -1.499486526739
 F    1.062780228529   -0.026645122430    1.297211741370
 F   -1.098907788575    0.079699195627    1.275830312497
 C   -0.046465348110   -0.493341094156    0.705005696829
 F   -0.105593620081   -1.808498248765    0.959452826346
 H    0.918963538614   -0.658816183310   -1.211832464852
 H    0.943070696695    2.879405524066   -1.788227081597
 C    1.216680573504    1.843344935332   -1.597062551157
 H    1.396780293344    1.335787396001   -2.549941034152
 H    2.120747903556    1.816725402134   -0.984067219494
 O    0.122214709849    1.262523533772   -0.904582740596
 H   -1.466644268188    0.417090569155   -1.731729020954
