13

 C    0.047164739058    0.113340344803   -1.180779434619
 O   -1.023916524429   -0.383391250064   -1.900138908535
CL    1.424409989796    0.381176834206    1.123307896674
CL   -1.492010644443    0.331760605022    1.063479570800
 C   -0.011697964357   -0.303282761949    0.323754668932
CL    0.023576946037   -2.072396064016    0.504724040164
 H    0.961526483162   -0.331759643375   -1.586779145730
 H    0.807968487837    3.130243528371   -2.158798300802
 C    1.106376849365    2.099774516530   -1.977480803102
 H    1.249268561645    1.592076507809   -2.935642893236
 H    2.036791870682    2.084648565193   -1.403245364243
 O    0.055231541339    1.499334840207   -1.235242832736
 H   -1.750052380607    0.243517532039   -1.793081498030
