13

 C   -0.009253811811   -0.160748577733   -1.204477414620
 O   -1.006976586333   -0.353356682796   -1.873054465356
CL    1.421835546424    0.381193684714    1.115299444017
CL   -1.489115485502    0.325652197887    1.063201385087
 C   -0.025784159747   -0.340426416262    0.349374075923
CL    0.027209678801   -2.103335226830    0.543017980886
 H    1.023132180946   -0.334662069197   -1.567916682734
 H    0.862597943484    3.214629833821   -2.274323003592
 C    1.103620386624    2.184546411788   -2.015677675452
 H    1.312458397161    1.605094238149   -2.918966595812
 H    1.961665998410    2.165844492311   -1.347943822818
 O    0.017638549627    1.622800333165   -1.296497115703
 H   -0.791438044246    1.612958828527   -1.835345147459
