13

 C    0.075077606656    0.245399503473   -1.592233340855
 O   -0.925838818799    0.184859542816   -2.314544506099
BR    1.580178309981    0.458429703894    0.882280015308
BR   -1.600752804328    0.641710608885    0.721365842461
 C   -0.020558811307   -0.117602650711   -0.075027043678
BR   -0.113522069291   -2.056277180944   -0.083082877276
 H    1.092395153959   -0.019083849674   -1.945130026018
 H    1.142531558551    3.559811062972   -2.383160487232
 C    1.335663770432    2.501086714151   -2.224877371520
 H    1.510312948765    1.994780650786   -3.177221307278
 H    2.185940003781    2.373511677020   -1.559320365613
 O    0.207785302347    1.939022136753   -1.562109418847
 H   -0.587303953904    1.952635425988   -2.135425681683
