13

 C   -0.038164439735   -0.362546726522   -1.203055440164
 O   -1.024534949638   -0.483291146213   -1.856013694181
CL    1.397696542069    0.366898589457    1.032687075568
CL   -1.499720918695    0.304697236423    1.032989728373
 C   -0.046107112149   -0.403399102538    0.345882703732
CL    0.027973988050   -2.165235477738    0.639394341994
 H    0.987630823336   -0.363879868852   -1.610290283053
 H    1.133372632851    3.358428968761   -2.415751473592
 C    1.173224395520    2.323951279514   -2.066977173912
 H    1.220903030412    1.655176398454   -2.933771471682
 H    2.072382377813    2.191738738114   -1.465833690189
 O    0.075376360321    2.015265320020   -1.225262751213
 H   -0.747076349950    2.119419988049   -1.713694220943
