13

 C    0.022592873325    0.040190371788   -1.613796084418
 O   -0.946923815192    0.050734231768   -2.308234673470
BR    1.565740189895    0.456842552069    0.854240427852
BR   -1.603150113634    0.642127255573    0.714668479968
 C   -0.038791407032   -0.143830907369   -0.077167964409
BR   -0.112100588131   -2.087338519935   -0.058803747366
 H    1.058528440443   -0.031247882459   -1.988487393539
 H    1.413446693248    3.669254931323   -2.527654209001
 C    1.408733436811    2.610511175416   -2.259940740144
 H    1.447854956017    2.007508877019   -3.173980603373
 H    2.287785149420    2.397207435634   -1.652585862281
 O    0.281959920777    2.284389731095   -1.466016859997
 H   -0.527320871911    2.443083972703   -1.964115267993
