13

 C    0.132304170469    0.465427742575   -1.557109432216
 O   -0.943624982739    0.117131760482   -2.353762904347
BR    1.580156832915    0.457127288408    0.883901397095
BR   -1.602273343542    0.645250363341    0.721448745267
 C   -0.005478857853   -0.088484783510   -0.101005670846
BR   -0.113000421567   -2.034005407255   -0.098940940211
 H    1.022780348234   -0.006941349465   -1.984627648985
 H    1.134341327493    3.488099015696   -2.259573426438
 C    1.335438976041    2.420785247583   -2.194867014875
 H    1.403516419799    2.004518786251   -3.204000151433
 H    2.274371403234    2.258081372656   -1.657850918110
 O    0.250558469837    1.847233469304   -1.479686740739
 H   -1.666059826878    0.719934150547   -2.137788461293
