13

 C   -0.069491167242   -0.766781184521    0.077233568762
 O   -1.087950674004   -0.793062091163   -0.662641448278
 H    0.718815123364   -0.709430016801    2.107375029718
 H   -1.049124074147   -0.464422061819    1.951548472837
 C   -0.182090843406   -0.998003935172    1.563762975038
 H   -0.348251557850   -2.070218687889    1.696843746416
 H    0.919181973870   -1.047481513554   -0.341483704844
 H    1.035348100652    2.464856657076   -1.108832080080
 C    1.208736454798    1.427268683390   -0.832973135577
 H    1.324615313834    0.814716279612   -1.731630530329
 H    2.104947172235    1.361734275430   -0.217500613038
 O    0.116403094060    0.972116684543   -0.053217292477
 H   -0.683040913854    0.827269119284   -0.616118913132
