13

 C   -0.034404969164   -0.329753374515   -1.205053437589
 O   -1.020631756637   -0.466235872196   -1.858988204318
CL    1.402349410813    0.373492287674    1.065228499567
CL   -1.494206269279    0.317783509704    1.048170330478
 C   -0.041131489223   -0.377540639774    0.345922517033
CL    0.029328769145   -2.142763541542    0.595517299436
 H    0.993625603870   -0.357749955231   -1.606107987419
 H    1.072629654710    3.313411050600   -2.390636983336
 C    1.157781921517    2.278838075471   -2.052065456840
 H    1.258693898740    1.621391427697   -2.922742565636
 H    2.045502876296    2.184714897090   -1.427700777272
 O    0.055021166674    1.909582985934   -1.243154289783
 H   -0.762063890053    1.981931367010   -1.748639708401
