13

 C    0.105911630289    0.288331205086   -1.569982350986
 O   -0.930875936396    0.219485352135   -2.319909760863
BR    1.580290915102    0.458259731928    0.882776041921
BR   -1.600538740545    0.641605070378    0.721279952525
 C   -0.017740156420   -0.116807355400   -0.075558980349
BR   -0.113687085693   -2.055962911008   -0.083452454422
 H    1.095164070431   -0.039393329257   -1.937767372915
 H    1.108025220666    3.543761295629   -2.366483241906
 C    1.328874919030    2.490901225095   -2.221910308367
 H    1.512107700731    2.001411632331   -3.181398677035
 H    2.185462714084    2.375358811480   -1.559124321419
 O    0.196737229907    1.898277067951   -1.573328390927
 H   -0.634121638495    1.675225574735   -2.189389936010
