13

 C    0.080402124277    0.254578810070   -1.588268423365
 O   -0.925785692258    0.192399834110   -2.314945862781
BR    1.580241149393    0.458394998007    0.882447286332
BR   -1.600691316645    0.641679745125    0.721341754140
 C   -0.019874899124   -0.117390026949   -0.074967022426
BR   -0.113561016774   -2.056159260142   -0.083205145688
 H    1.093870927905   -0.022074086104   -1.942310337774
 H    1.133462699563    3.555734248316   -2.378792328366
 C    1.333587648613    2.498595346916   -2.224319907963
 H    1.510566786040    1.995830825101   -3.177992203620
 H    2.183990820997    2.373173906066   -1.557942713259
 O    0.205052498688    1.929027197932   -1.565020490299
 H   -0.588994121623    1.911683900020   -2.146849231626
