13 
Vibrational Frequency frame 
C  0.006694   -0.279637   -0.800658 
O  -1.082449   -0.421790   -1.488009 
F  1.062803   -0.023956   1.295002 
F  -1.097540   0.080594   1.276019 
H  0.977178   2.910158   -1.818849 
C  1.210429   1.867744   -1.614497 
H  1.400921   1.327364   -2.544542 
H  2.068480   1.802669   -0.948289 
O  0.082405   1.298677   -0.934784 
H  -0.815825   0.946670   -1.521709 
C  -0.049908   -0.505362   0.713694 
F  -0.104426   -1.814354   0.969130 
H  0.966199   -0.661243   -1.191145 
13 
Vibrational Frequency frame 
C  0.006694   -0.279637   -0.800658 
O  -1.082449   -0.421790   -1.488009 
F  1.062803   -0.023956   1.295002 
F  -1.097540   0.080594   1.276019 
H  0.977178   2.910158   -1.818849 
C  1.210429   1.867744   -1.614497 
H  1.400921   1.327364   -2.544542 
H  2.068480   1.802669   -0.948289 
O  0.082405   1.298677   -0.934784 
H  -0.815825   0.946670   -1.521709 
C  -0.049908   -0.505362   0.713694 
F  -0.104426   -1.814354   0.969130 
H  0.966199   -0.661243   -1.191145 
13 
Vibrational Frequency frame 
C  0.006773   -0.279857   -0.799928 
O  -1.081775   -0.421240   -1.488241 
F  1.062707   -0.023986   1.294915 
F  -1.097172   0.080412   1.275756 
H  0.983076   2.912915   -1.819422 
C  1.212398   1.869359   -1.616867 
H  1.407048   1.327944   -2.545229 
H  2.064646   1.799741   -0.943685 
O  0.080170   1.297163   -0.934161 
H  -0.825894   0.950887   -1.509880 
C  -0.050121   -0.505436   0.713873 
F  -0.104420   -1.814142   0.969057 
H  0.965745   -0.666297   -1.187134 
13 
Vibrational Frequency frame 
C  0.006853   -0.280077   -0.799198 
O  -1.081100   -0.420690   -1.488472 
F  1.062611   -0.024016   1.294827 
F  -1.096803   0.080230   1.275493 
H  0.988974   2.915673   -1.819995 
C  1.214367   1.870973   -1.619238 
H  1.413175   1.328524   -2.545915 
H  2.060812   1.796813   -0.939082 
O  0.077934   1.295649   -0.933539 
H  -0.835964   0.955103   -1.498051 
C  -0.050334   -0.505509   0.714052 
F  -0.104414   -1.813930   0.968984 
H  0.965291   -0.671351   -1.183122 
13 
Vibrational Frequency frame 
C  0.006933   -0.280297   -0.798468 
O  -1.080426   -0.420139   -1.488704 
F  1.062515   -0.024045   1.294739 
F  -1.096435   0.080047   1.275231 
H  0.994872   2.918430   -1.820568 
C  1.216336   1.872587   -1.621608 
H  1.419301   1.329104   -2.546601 
H  2.056977   1.793885   -0.934478 
O  0.075698   1.294135   -0.932916 
H  -0.846034   0.959319   -1.486222 
C  -0.050548   -0.505583   0.714230 
F  -0.104407   -1.813718   0.968911 
H  0.964837   -0.676406   -1.179111 
13 
Vibrational Frequency frame 
C  0.007013   -0.280518   -0.797739 
O  -1.079751   -0.419589   -1.488936 
F  1.062419   -0.024075   1.294651 
F  -1.096067   0.079865   1.274968 
H  1.000770   2.921187   -1.821140 
C  1.218305   1.874201   -1.623978 
H  1.425428   1.329684   -2.547287 
H  2.053143   1.790956   -0.929875 
O  0.073463   1.292621   -0.932294 
H  -0.856103   0.963536   -1.474393 
C  -0.050761   -0.505657   0.714409 
F  -0.104401   -1.813505   0.968838 
H  0.964384   -0.681460   -1.175100 
13 
Vibrational Frequency frame 
C  0.007093   -0.280738   -0.797009 
O  -1.079076   -0.419039   -1.489167 
F  1.062323   -0.024104   1.294563 
F  -1.095698   0.079682   1.274706 
H  1.006668   2.923945   -1.821713 
C  1.220274   1.875816   -1.626349 
H  1.431555   1.330264   -2.547974 
H  2.049309   1.788028   -0.925271 
O  0.071227   1.291107   -0.931671 
H  -0.866173   0.967752   -1.462564 
C  -0.050974   -0.505731   0.714588 
F  -0.104395   -1.813293   0.968765 
H  0.963930   -0.686514   -1.171088 
13 
Vibrational Frequency frame 
C  0.007173   -0.280958   -0.796279 
O  -1.078402   -0.418489   -1.489399 
F  1.062227   -0.024134   1.294476 
F  -1.095330   0.079500   1.274443 
H  1.012566   2.926702   -1.822286 
C  1.222243   1.877430   -1.628719 
H  1.437682   1.330844   -2.548660 
H  2.045474   1.785100   -0.920668 
O  0.068992   1.289593   -0.931049 
H  -0.876243   0.971969   -1.450735 
C  -0.051187   -0.505804   0.714766 
F  -0.104389   -1.813081   0.968692 
H  0.963476   -0.691569   -1.167077 
13 
Vibrational Frequency frame 
C  0.007253   -0.281178   -0.795549 
O  -1.077727   -0.417938   -1.489630 
F  1.062131   -0.024163   1.294388 
F  -1.094962   0.079317   1.274181 
H  1.018464   2.929460   -1.822859 
C  1.224212   1.879044   -1.631090 
H  1.443809   1.331424   -2.549346 
H  2.041640   1.782172   -0.916064 
O  0.066756   1.288079   -0.930426 
H  -0.886313   0.976185   -1.438906 
C  -0.051400   -0.505878   0.714945 
F  -0.104382   -1.812869   0.968619 
H  0.963022   -0.696623   -1.163066 
13 
Vibrational Frequency frame 
C  0.007332   -0.281398   -0.794820 
O  -1.077052   -0.417388   -1.489862 
F  1.062035   -0.024193   1.294300 
F  -1.094594   0.079135   1.273918 
H  1.024362   2.932217   -1.823432 
C  1.226181   1.880658   -1.633460 
H  1.449936   1.332004   -2.550032 
H  2.037806   1.779243   -0.911461 
O  0.064520   1.286565   -0.929804 
H  -0.896382   0.980401   -1.427077 
C  -0.051613   -0.505952   0.715124 
F  -0.104376   -1.812657   0.968546 
H  0.962568   -0.701678   -1.159054 
13 
Vibrational Frequency frame 
C  0.007412   -0.281618   -0.794090 
O  -1.076378   -0.416838   -1.490093 
F  1.061939   -0.024222   1.294212 
F  -1.094225   0.078953   1.273655 
H  1.030260   2.934975   -1.824004 
C  1.228150   1.882273   -1.635831 
H  1.456063   1.332585   -2.550718 
H  2.033971   1.776315   -0.906857 
O  0.062285   1.285051   -0.929181 
H  -0.906452   0.984618   -1.415248 
C  -0.051827   -0.506026   0.715302 
F  -0.104370   -1.812445   0.968473 
H  0.962114   -0.706732   -1.155043 
13 
Vibrational Frequency frame 
C  0.007492   -0.281838   -0.793360 
O  -1.075703   -0.416288   -1.490325 
F  1.061843   -0.024252   1.294124 
F  -1.093857   0.078770   1.273393 
H  1.036158   2.937732   -1.824577 
C  1.230119   1.883887   -1.638201 
H  1.462190   1.333165   -2.551405 
H  2.030137   1.773387   -0.902254 
O  0.060049   1.283537   -0.928559 
H  -0.916522   0.988834   -1.403419 
C  -0.052040   -0.506100   0.715481 
F  -0.104364   -1.812233   0.968400 
H  0.961660   -0.711786   -1.151031 
13 
Vibrational Frequency frame 
C  0.007572   -0.282058   -0.792630 
O  -1.075028   -0.415737   -1.490557 
F  1.061747   -0.024281   1.294037 
F  -1.093489   0.078588   1.273130 
H  1.042056   2.940490   -1.825150 
C  1.232087   1.885501   -1.640572 
H  1.468317   1.333745   -2.552091 
H  2.026303   1.770458   -0.897650 
O  0.057813   1.282023   -0.927936 
H  -0.926592   0.993050   -1.391591 
C  -0.052253   -0.506173   0.715660 
F  -0.104358   -1.812021   0.968327 
H  0.961206   -0.716841   -1.147020 
13 
Vibrational Frequency frame 
C  0.007652   -0.282279   -0.791901 
O  -1.074354   -0.415187   -1.490788 
F  1.061651   -0.024311   1.293949 
F  -1.093120   0.078405   1.272868 
H  1.047954   2.943247   -1.825723 
C  1.234056   1.887115   -1.642942 
H  1.474443   1.334325   -2.552777 
H  2.022468   1.767530   -0.893047 
O  0.055578   1.280509   -0.927314 
H  -0.936661   0.997267   -1.379762 
C  -0.052466   -0.506247   0.715838 
F  -0.104351   -1.811809   0.968254 
H  0.960752   -0.721895   -1.143009 
13 
Vibrational Frequency frame 
C  0.007732   -0.282499   -0.791171 
O  -1.073679   -0.414637   -1.491020 
F  1.061555   -0.024340   1.293861 
F  -1.092752   0.078223   1.272605 
H  1.053852   2.946004   -1.826296 
C  1.236025   1.888730   -1.645313 
H  1.480570   1.334905   -2.553463 
H  2.018634   1.764602   -0.888443 
O  0.053342   1.278995   -0.926691 
H  -0.946731   1.001483   -1.367933 
C  -0.052679   -0.506321   0.716017 
F  -0.104345   -1.811597   0.968181 
H  0.960298   -0.726949   -1.138997 
13 
Vibrational Frequency frame 
C  0.007812   -0.282719   -0.790441 
O  -1.073004   -0.414087   -1.491251 
F  1.061459   -0.024370   1.293773 
F  -1.092384   0.078040   1.272343 
H  1.059750   2.948762   -1.826868 
C  1.237994   1.890344   -1.647683 
H  1.486697   1.335485   -2.554149 
H  2.014800   1.761674   -0.883840 
O  0.051106   1.277481   -0.926069 
H  -0.956801   1.005699   -1.356104 
C  -0.052893   -0.506395   0.716196 
F  -0.104339   -1.811384   0.968108 
H  0.959844   -0.732004   -1.134986 
13 
Vibrational Frequency frame 
C  0.007891   -0.282939   -0.789711 
O  -1.072330   -0.413536   -1.491483 
F  1.061363   -0.024399   1.293685 
F  -1.092016   0.077858   1.272080 
H  1.065648   2.951519   -1.827441 
C  1.239963   1.891958   -1.650054 
H  1.492824   1.336065   -2.554836 
H  2.010965   1.758745   -0.879236 
O  0.048871   1.275967   -0.925446 
H  -0.966870   1.009916   -1.344275 
C  -0.053106   -0.506469   0.716374 
F  -0.104333   -1.811172   0.968035 
H  0.959390   -0.737058   -1.130974 
13 
Vibrational Frequency frame 
C  0.007971   -0.283159   -0.788982 
O  -1.071655   -0.412986   -1.491714 
F  1.061267   -0.024429   1.293598 
F  -1.091647   0.077676   1.271818 
H  1.071546   2.954277   -1.828014 
C  1.241932   1.893572   -1.652424 
H  1.498951   1.336645   -2.555522 
H  2.007131   1.755817   -0.874633 
O  0.046635   1.274453   -0.924824 
H  -0.976940   1.014132   -1.332446 
C  -0.053319   -0.506542   0.716553 
F  -0.104326   -1.810960   0.967962 
H  0.958936   -0.742112   -1.126963 
13 
Vibrational Frequency frame 
C  0.008051   -0.283379   -0.788252 
O  -1.070980   -0.412436   -1.491946 
F  1.061171   -0.024458   1.293510 
F  -1.091279   0.077493   1.271555 
H  1.077444   2.957034   -1.828587 
C  1.243901   1.895187   -1.654795 
H  1.505078   1.337225   -2.556208 
H  2.003297   1.752889   -0.870029 
O  0.044399   1.272939   -0.924201 
H  -0.987010   1.018348   -1.320617 
C  -0.053532   -0.506616   0.716732 
F  -0.104320   -1.810748   0.967889 
H  0.958482   -0.747167   -1.122952 
13 
Vibrational Frequency frame 
C  0.008131   -0.283599   -0.787522 
O  -1.070306   -0.411886   -1.492178 
F  1.061075   -0.024488   1.293422 
F  -1.090911   0.077311   1.271292 
H  1.083342   2.959792   -1.829160 
C  1.245870   1.896801   -1.657165 
H  1.511205   1.337806   -2.556894 
H  1.999462   1.749960   -0.865426 
O  0.042164   1.271425   -0.923579 
H  -0.997080   1.022565   -1.308788 
C  -0.053745   -0.506690   0.716910 
F  -0.104314   -1.810536   0.967816 
H  0.958029   -0.752221   -1.118940 
13 
Vibrational Frequency frame 
C  0.008211   -0.283819   -0.786792 
O  -1.069631   -0.411335   -1.492409 
F  1.060979   -0.024517   1.293334 
F  -1.090542   0.077128   1.271030 
H  1.089240   2.962549   -1.829733 
C  1.247839   1.898415   -1.659536 
H  1.517332   1.338386   -2.557581 
H  1.995628   1.747032   -0.860822 
O  0.039928   1.269911   -0.922956 
H  -1.007149   1.026781   -1.296959 
C  -0.053958   -0.506764   0.717089 
F  -0.104308   -1.810324   0.967743 
H  0.957575   -0.757275   -1.114929 
13 
Vibrational Frequency frame 
C  0.008291   -0.284040   -0.786063 
O  -1.068956   -0.410785   -1.492641 
F  1.060883   -0.024547   1.293247 
F  -1.090174   0.076946   1.270767 
H  1.095138   2.965307   -1.830305 
C  1.249808   1.900029   -1.661906 
H  1.523459   1.338966   -2.558267 
H  1.991794   1.744104   -0.856219 
O  0.037693   1.268397   -0.922334 
H  -1.017219   1.030997   -1.285130 
C  -0.054172   -0.506838   0.717268 
F  -0.104302   -1.810112   0.967670 
H  0.957121   -0.762330   -1.110918 
13 
Vibrational Frequency frame 
C  0.008371   -0.284260   -0.785333 
O  -1.068282   -0.410235   -1.492872 
F  1.060787   -0.024576   1.293159 
F  -1.089806   0.076763   1.270505 
H  1.101036   2.968064   -1.830878 
C  1.251777   1.901644   -1.664277 
H  1.529586   1.339546   -2.558953 
H  1.987959   1.741176   -0.851615 
O  0.035457   1.266883   -0.921711 
H  -1.027289   1.035214   -1.273301 
C  -0.054385   -0.506911   0.717446 
F  -0.104295   -1.809900   0.967597 
H  0.956667   -0.767384   -1.106906 
13 
Vibrational Frequency frame 
C  0.008451   -0.284480   -0.784603 
O  -1.067607   -0.409685   -1.493104 
F  1.060691   -0.024606   1.293071 
F  -1.089438   0.076581   1.270242 
H  1.106934   2.970821   -1.831451 
C  1.253746   1.903258   -1.666647 
H  1.535712   1.340126   -2.559639 
H  1.984125   1.738247   -0.847012 
O  0.033221   1.265369   -0.921089 
H  -1.037359   1.039430   -1.261472 
C  -0.054598   -0.506985   0.717625 
F  -0.104289   -1.809688   0.967524 
H  0.956213   -0.772438   -1.102895 
13 
Vibrational Frequency frame 
C  0.008530   -0.284700   -0.783873 
O  -1.066932   -0.409134   -1.493335 
F  1.060595   -0.024636   1.292983 
F  -1.089069   0.076399   1.269980 
H  1.112832   2.973579   -1.832024 
C  1.255715   1.904872   -1.669018 
H  1.541839   1.340706   -2.560325 
H  1.980291   1.735319   -0.842408 
O  0.030986   1.263855   -0.920466 
H  -1.047428   1.043647   -1.249643 
C  -0.054811   -0.507059   0.717804 
F  -0.104283   -1.809476   0.967451 
H  0.955759   -0.777493   -1.098883 
13 
Vibrational Frequency frame 
C  0.008610   -0.284920   -0.783144 
O  -1.066258   -0.408584   -1.493567 
F  1.060499   -0.024665   1.292895 
F  -1.088701   0.076216   1.269717 
H  1.118730   2.976336   -1.832597 
C  1.257684   1.906487   -1.671388 
H  1.547966   1.341286   -2.561012 
H  1.976456   1.732391   -0.837805 
O  0.028750   1.262341   -0.919844 
H  -1.057498   1.047863   -1.237814 
C  -0.055024   -0.507133   0.717982 
F  -0.104277   -1.809263   0.967378 
H  0.955305   -0.782547   -1.094872 
13 
Vibrational Frequency frame 
C  0.008690   -0.285140   -0.782414 
O  -1.065583   -0.408034   -1.493798 
F  1.060403   -0.024695   1.292808 
F  -1.088333   0.076034   1.269454 
H  1.124628   2.979094   -1.833169 
C  1.259653   1.908101   -1.673759 
H  1.554093   1.341866   -2.561698 
H  1.972622   1.729462   -0.833201 
O  0.026514   1.260827   -0.919221 
H  -1.067568   1.052079   -1.225985 
C  -0.055238   -0.507207   0.718161 
F  -0.104270   -1.809051   0.967305 
H  0.954851   -0.787601   -1.090861 
13 
Vibrational Frequency frame 
C  0.008610   -0.284920   -0.783144 
O  -1.066258   -0.408584   -1.493567 
F  1.060499   -0.024665   1.292895 
F  -1.088701   0.076216   1.269717 
H  1.118730   2.976336   -1.832597 
C  1.257684   1.906487   -1.671388 
H  1.547966   1.341286   -2.561012 
H  1.976456   1.732391   -0.837805 
O  0.028750   1.262341   -0.919844 
H  -1.057498   1.047863   -1.237814 
C  -0.055024   -0.507133   0.717982 
F  -0.104277   -1.809263   0.967378 
H  0.955305   -0.782547   -1.094872 
13 
Vibrational Frequency frame 
C  0.008530   -0.284700   -0.783873 
O  -1.066932   -0.409134   -1.493335 
F  1.060595   -0.024636   1.292983 
F  -1.089069   0.076399   1.269980 
H  1.112832   2.973579   -1.832024 
C  1.255715   1.904872   -1.669018 
H  1.541839   1.340706   -2.560325 
H  1.980291   1.735319   -0.842408 
O  0.030986   1.263855   -0.920466 
H  -1.047428   1.043647   -1.249643 
C  -0.054811   -0.507059   0.717804 
F  -0.104283   -1.809476   0.967451 
H  0.955759   -0.777493   -1.098883 
13 
Vibrational Frequency frame 
C  0.008451   -0.284480   -0.784603 
O  -1.067607   -0.409685   -1.493104 
F  1.060691   -0.024606   1.293071 
F  -1.089438   0.076581   1.270242 
H  1.106934   2.970821   -1.831451 
C  1.253746   1.903258   -1.666647 
H  1.535712   1.340126   -2.559639 
H  1.984125   1.738247   -0.847012 
O  0.033221   1.265369   -0.921089 
H  -1.037359   1.039430   -1.261472 
C  -0.054598   -0.506985   0.717625 
F  -0.104289   -1.809688   0.967524 
H  0.956213   -0.772438   -1.102895 
13 
Vibrational Frequency frame 
C  0.008371   -0.284260   -0.785333 
O  -1.068282   -0.410235   -1.492872 
F  1.060787   -0.024576   1.293159 
F  -1.089806   0.076763   1.270505 
H  1.101036   2.968064   -1.830878 
C  1.251777   1.901644   -1.664277 
H  1.529586   1.339546   -2.558953 
H  1.987959   1.741176   -0.851615 
O  0.035457   1.266883   -0.921711 
H  -1.027289   1.035214   -1.273301 
C  -0.054385   -0.506911   0.717446 
F  -0.104295   -1.809900   0.967597 
H  0.956667   -0.767384   -1.106906 
13 
Vibrational Frequency frame 
C  0.008291   -0.284040   -0.786063 
O  -1.068956   -0.410785   -1.492641 
F  1.060883   -0.024547   1.293247 
F  -1.090174   0.076946   1.270767 
H  1.095138   2.965307   -1.830305 
C  1.249808   1.900029   -1.661906 
H  1.523459   1.338966   -2.558267 
H  1.991794   1.744104   -0.856219 
O  0.037693   1.268397   -0.922334 
H  -1.017219   1.030997   -1.285130 
C  -0.054172   -0.506838   0.717268 
F  -0.104302   -1.810112   0.967670 
H  0.957121   -0.762330   -1.110918 
13 
Vibrational Frequency frame 
C  0.008211   -0.283819   -0.786792 
O  -1.069631   -0.411335   -1.492409 
F  1.060979   -0.024517   1.293334 
F  -1.090542   0.077128   1.271030 
H  1.089240   2.962549   -1.829733 
C  1.247839   1.898415   -1.659536 
H  1.517332   1.338386   -2.557581 
H  1.995628   1.747032   -0.860822 
O  0.039928   1.269911   -0.922956 
H  -1.007149   1.026781   -1.296959 
C  -0.053958   -0.506764   0.717089 
F  -0.104308   -1.810324   0.967743 
H  0.957575   -0.757275   -1.114929 
13 
Vibrational Frequency frame 
C  0.008131   -0.283599   -0.787522 
O  -1.070306   -0.411886   -1.492178 
F  1.061075   -0.024488   1.293422 
F  -1.090911   0.077311   1.271292 
H  1.083342   2.959792   -1.829160 
C  1.245870   1.896801   -1.657165 
H  1.511205   1.337806   -2.556894 
H  1.999462   1.749960   -0.865426 
O  0.042164   1.271425   -0.923579 
H  -0.997080   1.022565   -1.308788 
C  -0.053745   -0.506690   0.716910 
F  -0.104314   -1.810536   0.967816 
H  0.958029   -0.752221   -1.118940 
13 
Vibrational Frequency frame 
C  0.008051   -0.283379   -0.788252 
O  -1.070980   -0.412436   -1.491946 
F  1.061171   -0.024458   1.293510 
F  -1.091279   0.077493   1.271555 
H  1.077444   2.957034   -1.828587 
C  1.243901   1.895187   -1.654795 
H  1.505078   1.337225   -2.556208 
H  2.003297   1.752889   -0.870029 
O  0.044399   1.272939   -0.924201 
H  -0.987010   1.018348   -1.320617 
C  -0.053532   -0.506616   0.716732 
F  -0.104320   -1.810748   0.967889 
H  0.958482   -0.747167   -1.122952 
13 
Vibrational Frequency frame 
C  0.007971   -0.283159   -0.788982 
O  -1.071655   -0.412986   -1.491714 
F  1.061267   -0.024429   1.293598 
F  -1.091647   0.077676   1.271818 
H  1.071546   2.954277   -1.828014 
C  1.241932   1.893572   -1.652424 
H  1.498951   1.336645   -2.555522 
H  2.007131   1.755817   -0.874633 
O  0.046635   1.274453   -0.924824 
H  -0.976940   1.014132   -1.332446 
C  -0.053319   -0.506542   0.716553 
F  -0.104326   -1.810960   0.967962 
H  0.958936   -0.742112   -1.126963 
13 
Vibrational Frequency frame 
C  0.007891   -0.282939   -0.789711 
O  -1.072330   -0.413536   -1.491483 
F  1.061363   -0.024399   1.293685 
F  -1.092016   0.077858   1.272080 
H  1.065648   2.951519   -1.827441 
C  1.239963   1.891958   -1.650054 
H  1.492824   1.336065   -2.554836 
H  2.010965   1.758745   -0.879236 
O  0.048871   1.275967   -0.925446 
H  -0.966870   1.009916   -1.344275 
C  -0.053106   -0.506469   0.716374 
F  -0.104333   -1.811172   0.968035 
H  0.959390   -0.737058   -1.130974 
13 
Vibrational Frequency frame 
C  0.007812   -0.282719   -0.790441 
O  -1.073004   -0.414087   -1.491251 
F  1.061459   -0.024370   1.293773 
F  -1.092384   0.078040   1.272343 
H  1.059750   2.948762   -1.826868 
C  1.237994   1.890344   -1.647683 
H  1.486697   1.335485   -2.554149 
H  2.014800   1.761674   -0.883840 
O  0.051106   1.277481   -0.926069 
H  -0.956801   1.005699   -1.356104 
C  -0.052893   -0.506395   0.716196 
F  -0.104339   -1.811384   0.968108 
H  0.959844   -0.732004   -1.134986 
13 
Vibrational Frequency frame 
C  0.007732   -0.282499   -0.791171 
O  -1.073679   -0.414637   -1.491020 
F  1.061555   -0.024340   1.293861 
F  -1.092752   0.078223   1.272605 
H  1.053852   2.946004   -1.826296 
C  1.236025   1.888730   -1.645313 
H  1.480570   1.334905   -2.553463 
H  2.018634   1.764602   -0.888443 
O  0.053342   1.278995   -0.926691 
H  -0.946731   1.001483   -1.367933 
C  -0.052679   -0.506321   0.716017 
F  -0.104345   -1.811597   0.968181 
H  0.960298   -0.726949   -1.138997 
13 
Vibrational Frequency frame 
C  0.007652   -0.282279   -0.791901 
O  -1.074354   -0.415187   -1.490788 
F  1.061651   -0.024311   1.293949 
F  -1.093120   0.078405   1.272868 
H  1.047954   2.943247   -1.825723 
C  1.234056   1.887115   -1.642942 
H  1.474443   1.334325   -2.552777 
H  2.022468   1.767530   -0.893047 
O  0.055578   1.280509   -0.927314 
H  -0.936661   0.997267   -1.379762 
C  -0.052466   -0.506247   0.715838 
F  -0.104351   -1.811809   0.968254 
H  0.960752   -0.721895   -1.143009 
13 
Vibrational Frequency frame 
C  0.007572   -0.282058   -0.792630 
O  -1.075028   -0.415737   -1.490557 
F  1.061747   -0.024281   1.294037 
F  -1.093489   0.078588   1.273130 
H  1.042056   2.940490   -1.825150 
C  1.232087   1.885501   -1.640572 
H  1.468317   1.333745   -2.552091 
H  2.026303   1.770458   -0.897650 
O  0.057813   1.282023   -0.927936 
H  -0.926592   0.993050   -1.391591 
C  -0.052253   -0.506173   0.715660 
F  -0.104358   -1.812021   0.968327 
H  0.961206   -0.716841   -1.147020 
13 
Vibrational Frequency frame 
C  0.007492   -0.281838   -0.793360 
O  -1.075703   -0.416288   -1.490325 
F  1.061843   -0.024252   1.294124 
F  -1.093857   0.078770   1.273393 
H  1.036158   2.937732   -1.824577 
C  1.230119   1.883887   -1.638201 
H  1.462190   1.333165   -2.551405 
H  2.030137   1.773387   -0.902254 
O  0.060049   1.283537   -0.928559 
H  -0.916522   0.988834   -1.403419 
C  -0.052040   -0.506100   0.715481 
F  -0.104364   -1.812233   0.968400 
H  0.961660   -0.711786   -1.151031 
13 
Vibrational Frequency frame 
C  0.007412   -0.281618   -0.794090 
O  -1.076378   -0.416838   -1.490093 
F  1.061939   -0.024222   1.294212 
F  -1.094225   0.078953   1.273655 
H  1.030260   2.934975   -1.824004 
C  1.228150   1.882273   -1.635831 
H  1.456063   1.332585   -2.550718 
H  2.033971   1.776315   -0.906857 
O  0.062285   1.285051   -0.929181 
H  -0.906452   0.984618   -1.415248 
C  -0.051827   -0.506026   0.715302 
F  -0.104370   -1.812445   0.968473 
H  0.962114   -0.706732   -1.155043 
13 
Vibrational Frequency frame 
C  0.007332   -0.281398   -0.794820 
O  -1.077052   -0.417388   -1.489862 
F  1.062035   -0.024193   1.294300 
F  -1.094594   0.079135   1.273918 
H  1.024362   2.932217   -1.823432 
C  1.226181   1.880658   -1.633460 
H  1.449936   1.332004   -2.550032 
H  2.037806   1.779243   -0.911461 
O  0.064520   1.286565   -0.929804 
H  -0.896382   0.980401   -1.427077 
C  -0.051613   -0.505952   0.715124 
F  -0.104376   -1.812657   0.968546 
H  0.962568   -0.701678   -1.159054 
13 
Vibrational Frequency frame 
C  0.007253   -0.281178   -0.795549 
O  -1.077727   -0.417938   -1.489630 
F  1.062131   -0.024163   1.294388 
F  -1.094962   0.079317   1.274181 
H  1.018464   2.929460   -1.822859 
C  1.224212   1.879044   -1.631090 
H  1.443809   1.331424   -2.549346 
H  2.041640   1.782172   -0.916064 
O  0.066756   1.288079   -0.930426 
H  -0.886313   0.976185   -1.438906 
C  -0.051400   -0.505878   0.714945 
F  -0.104382   -1.812869   0.968619 
H  0.963022   -0.696623   -1.163066 
13 
Vibrational Frequency frame 
C  0.007173   -0.280958   -0.796279 
O  -1.078402   -0.418489   -1.489399 
F  1.062227   -0.024134   1.294476 
F  -1.095330   0.079500   1.274443 
H  1.012566   2.926702   -1.822286 
C  1.222243   1.877430   -1.628719 
H  1.437682   1.330844   -2.548660 
H  2.045474   1.785100   -0.920668 
O  0.068992   1.289593   -0.931049 
H  -0.876243   0.971969   -1.450735 
C  -0.051187   -0.505804   0.714766 
F  -0.104389   -1.813081   0.968692 
H  0.963476   -0.691569   -1.167077 
13 
Vibrational Frequency frame 
C  0.007093   -0.280738   -0.797009 
O  -1.079076   -0.419039   -1.489167 
F  1.062323   -0.024104   1.294563 
F  -1.095698   0.079682   1.274706 
H  1.006668   2.923945   -1.821713 
C  1.220274   1.875816   -1.626349 
H  1.431555   1.330264   -2.547974 
H  2.049309   1.788028   -0.925271 
O  0.071227   1.291107   -0.931671 
H  -0.866173   0.967752   -1.462564 
C  -0.050974   -0.505731   0.714588 
F  -0.104395   -1.813293   0.968765 
H  0.963930   -0.686514   -1.171088 
13 
Vibrational Frequency frame 
C  0.007013   -0.280518   -0.797739 
O  -1.079751   -0.419589   -1.488936 
F  1.062419   -0.024075   1.294651 
F  -1.096067   0.079865   1.274968 
H  1.000770   2.921187   -1.821140 
C  1.218305   1.874201   -1.623978 
H  1.425428   1.329684   -2.547287 
H  2.053143   1.790956   -0.929875 
O  0.073463   1.292621   -0.932294 
H  -0.856103   0.963536   -1.474393 
C  -0.050761   -0.505657   0.714409 
F  -0.104401   -1.813505   0.968838 
H  0.964384   -0.681460   -1.175100 
13 
Vibrational Frequency frame 
C  0.006933   -0.280297   -0.798468 
O  -1.080426   -0.420139   -1.488704 
F  1.062515   -0.024045   1.294739 
F  -1.096435   0.080047   1.275231 
H  0.994872   2.918430   -1.820568 
C  1.216336   1.872587   -1.621608 
H  1.419301   1.329104   -2.546601 
H  2.056977   1.793885   -0.934478 
O  0.075698   1.294135   -0.932916 
H  -0.846034   0.959319   -1.486222 
C  -0.050548   -0.505583   0.714230 
F  -0.104407   -1.813718   0.968911 
H  0.964837   -0.676406   -1.179111 
13 
Vibrational Frequency frame 
C  0.006853   -0.280077   -0.799198 
O  -1.081100   -0.420690   -1.488472 
F  1.062611   -0.024016   1.294827 
F  -1.096803   0.080230   1.275493 
H  0.988974   2.915673   -1.819995 
C  1.214367   1.870973   -1.619238 
H  1.413175   1.328524   -2.545915 
H  2.060812   1.796813   -0.939082 
O  0.077934   1.295649   -0.933539 
H  -0.835964   0.955103   -1.498051 
C  -0.050334   -0.505509   0.714052 
F  -0.104414   -1.813930   0.968984 
H  0.965291   -0.671351   -1.183122 
13 
Vibrational Frequency frame 
C  0.006773   -0.279857   -0.799928 
O  -1.081775   -0.421240   -1.488241 
F  1.062707   -0.023986   1.294915 
F  -1.097172   0.080412   1.275756 
H  0.983076   2.912915   -1.819422 
C  1.212398   1.869359   -1.616867 
H  1.407048   1.327944   -2.545229 
H  2.064646   1.799741   -0.943685 
O  0.080170   1.297163   -0.934161 
H  -0.825894   0.950887   -1.509880 
C  -0.050121   -0.505436   0.713873 
F  -0.104420   -1.814142   0.969057 
H  0.965745   -0.666297   -1.187134 
