13 
Vibrational Frequency frame 
C  0.006694   -0.279637   -0.800658 
O  -1.082449   -0.421790   -1.488009 
F  1.062803   -0.023956   1.295002 
F  -1.097540   0.080594   1.276019 
H  0.977178   2.910158   -1.818849 
C  1.210429   1.867744   -1.614497 
H  1.400921   1.327364   -2.544542 
H  2.068480   1.802669   -0.948289 
O  0.082405   1.298677   -0.934784 
H  -0.815825   0.946670   -1.521709 
C  -0.049908   -0.505362   0.713694 
F  -0.104426   -1.814354   0.969130 
H  0.966199   -0.661243   -1.191145 
13 
Vibrational Frequency frame 
C  0.006694   -0.279637   -0.800658 
O  -1.082449   -0.421790   -1.488009 
F  1.062803   -0.023956   1.295002 
F  -1.097540   0.080594   1.276019 
H  0.977178   2.910158   -1.818849 
C  1.210429   1.867744   -1.614497 
H  1.400921   1.327364   -2.544542 
H  2.068480   1.802669   -0.948289 
O  0.082405   1.298677   -0.934784 
H  -0.815825   0.946670   -1.521709 
C  -0.049908   -0.505362   0.713694 
F  -0.104426   -1.814354   0.969130 
H  0.966199   -0.661243   -1.191145 
13 
Vibrational Frequency frame 
C  0.007334   -0.280460   -0.801011 
O  -1.083748   -0.421493   -1.488136 
F  1.062604   -0.024311   1.294895 
F  -1.097085   0.080085   1.275793 
H  0.983250   2.912911   -1.818284 
C  1.209402   1.868479   -1.616189 
H  1.407159   1.326797   -2.544018 
H  2.062154   1.798219   -0.943667 
O  0.082727   1.297780   -0.933317 
H  -0.808885   0.943443   -1.528249 
C  -0.050156   -0.500699   0.713501 
F  -0.104499   -1.816038   0.969514 
H  0.972880   -0.652692   -1.185906 
13 
Vibrational Frequency frame 
C  0.007975   -0.281282   -0.801364 
O  -1.085047   -0.421195   -1.488262 
F  1.062406   -0.024665   1.294788 
F  -1.096629   0.079576   1.275568 
H  0.989321   2.915665   -1.817718 
C  1.208374   1.869213   -1.617882 
H  1.413396   1.326231   -2.543494 
H  2.055828   1.793769   -0.939046 
O  0.083048   1.296883   -0.931850 
H  -0.801945   0.940216   -1.534788 
C  -0.050404   -0.496036   0.713307 
F  -0.104573   -1.817722   0.969898 
H  0.979560   -0.644141   -1.180666 
13 
Vibrational Frequency frame 
C  0.008616   -0.282105   -0.801718 
O  -1.086345   -0.420898   -1.488388 
F  1.062208   -0.025019   1.294681 
F  -1.096174   0.079068   1.275343 
H  0.995392   2.918419   -1.817152 
C  1.207347   1.869948   -1.619574 
H  1.419634   1.325665   -2.542970 
H  2.049502   1.789319   -0.934425 
O  0.083369   1.295986   -0.930383 
H  -0.795005   0.936988   -1.541328 
C  -0.050652   -0.491373   0.713114 
F  -0.104646   -1.819406   0.970283 
H  0.986241   -0.635589   -1.175427 
13 
Vibrational Frequency frame 
C  0.009257   -0.282927   -0.802071 
O  -1.087644   -0.420600   -1.488515 
F  1.062010   -0.025373   1.294574 
F  -1.095719   0.078559   1.275118 
H  1.001464   2.921173   -1.816587 
C  1.206319   1.870682   -1.621266 
H  1.425872   1.325098   -2.542446 
H  2.043175   1.784869   -0.929803 
O  0.083690   1.295089   -0.928917 
H  -0.788066   0.933761   -1.547868 
C  -0.050899   -0.486710   0.712920 
F  -0.104719   -1.821090   0.970667 
H  0.992921   -0.627038   -1.170187 
13 
Vibrational Frequency frame 
C  0.009898   -0.283750   -0.802424 
O  -1.088943   -0.420303   -1.488641 
F  1.061812   -0.025727   1.294466 
F  -1.095264   0.078050   1.274893 
H  1.007535   2.923926   -1.816021 
C  1.205292   1.871416   -1.622959 
H  1.432110   1.324532   -2.541922 
H  2.036849   1.780419   -0.925182 
O  0.084011   1.294191   -0.927450 
H  -0.781126   0.930534   -1.554408 
C  -0.051147   -0.482047   0.712727 
F  -0.104792   -1.822774   0.971051 
H  0.999602   -0.618487   -1.164948 
13 
Vibrational Frequency frame 
C  0.010539   -0.284572   -0.802778 
O  -1.090241   -0.420006   -1.488767 
F  1.061614   -0.026082   1.294359 
F  -1.094809   0.077541   1.274668 
H  1.013606   2.926680   -1.815455 
C  1.204264   1.872151   -1.624651 
H  1.438348   1.323966   -2.541398 
H  2.030523   1.775969   -0.920560 
O  0.084332   1.293294   -0.925983 
H  -0.774186   0.927306   -1.560947 
C  -0.051395   -0.477384   0.712533 
F  -0.104866   -1.824458   0.971436 
H  1.006282   -0.609936   -1.159708 
13 
Vibrational Frequency frame 
C  0.011180   -0.285395   -0.803131 
O  -1.091540   -0.419708   -1.488894 
F  1.061415   -0.026436   1.294252 
F  -1.094353   0.077032   1.274443 
H  1.019677   2.929434   -1.814890 
C  1.203237   1.872885   -1.626344 
H  1.444586   1.323400   -2.540874 
H  2.024197   1.771519   -0.915939 
O  0.084653   1.292397   -0.924516 
H  -0.767246   0.924079   -1.567487 
C  -0.051643   -0.472720   0.712339 
F  -0.104939   -1.826142   0.971820 
H  1.012962   -0.601385   -1.154469 
13 
Vibrational Frequency frame 
C  0.011821   -0.286217   -0.803484 
O  -1.092839   -0.419411   -1.489020 
F  1.061217   -0.026790   1.294145 
F  -1.093898   0.076523   1.274217 
H  1.025749   2.932187   -1.814324 
C  1.202209   1.873620   -1.628036 
H  1.450824   1.322833   -2.540349 
H  2.017870   1.767069   -0.911317 
O  0.084974   1.291500   -0.923050 
H  -0.760307   0.920852   -1.574027 
C  -0.051891   -0.468057   0.712146 
F  -0.105012   -1.827826   0.972204 
H  1.019643   -0.592834   -1.149229 
13 
Vibrational Frequency frame 
C  0.012462   -0.287040   -0.803838 
O  -1.094137   -0.419113   -1.489146 
F  1.061019   -0.027144   1.294038 
F  -1.093443   0.076014   1.273992 
H  1.031820   2.934941   -1.813759 
C  1.201182   1.874354   -1.629729 
H  1.457062   1.322267   -2.539825 
H  2.011544   1.762619   -0.906696 
O  0.085296   1.290603   -0.921583 
H  -0.753367   0.917625   -1.580566 
C  -0.052139   -0.463394   0.711952 
F  -0.105085   -1.829510   0.972589 
H  1.026323   -0.584283   -1.143990 
13 
Vibrational Frequency frame 
C  0.013102   -0.287863   -0.804191 
O  -1.095436   -0.418816   -1.489273 
F  1.060821   -0.027498   1.293930 
F  -1.092988   0.075505   1.273767 
H  1.037891   2.937695   -1.813193 
C  1.200155   1.875089   -1.631421 
H  1.463300   1.321701   -2.539301 
H  2.005218   1.758168   -0.902075 
O  0.085617   1.289706   -0.920116 
H  -0.746427   0.914397   -1.587106 
C  -0.052387   -0.458731   0.711759 
F  -0.105159   -1.831194   0.972973 
H  1.033004   -0.575732   -1.138750 
13 
Vibrational Frequency frame 
C  0.013743   -0.288685   -0.804545 
O  -1.096735   -0.418518   -1.489399 
F  1.060623   -0.027852   1.293823 
F  -1.092532   0.074996   1.273542 
H  1.043962   2.940449   -1.812627 
C  1.199127   1.875823   -1.633114 
H  1.469537   1.321134   -2.538777 
H  1.998892   1.753718   -0.897453 
O  0.085938   1.288809   -0.918649 
H  -0.739487   0.911170   -1.593646 
C  -0.052634   -0.454068   0.711565 
F  -0.105232   -1.832878   0.973357 
H  1.039684   -0.567180   -1.133510 
13 
Vibrational Frequency frame 
C  0.014384   -0.289508   -0.804898 
O  -1.098033   -0.418221   -1.489525 
F  1.060425   -0.028207   1.293716 
F  -1.092077   0.074487   1.273317 
H  1.050034   2.943202   -1.812062 
C  1.198100   1.876558   -1.634806 
H  1.475775   1.320568   -2.538253 
H  1.992565   1.749268   -0.892832 
O  0.086259   1.287912   -0.917183 
H  -0.732548   0.907943   -1.600186 
C  -0.052882   -0.449405   0.711371 
F  -0.105305   -1.834562   0.973742 
H  1.046365   -0.558629   -1.128271 
13 
Vibrational Frequency frame 
C  0.015025   -0.290330   -0.805251 
O  -1.099332   -0.417924   -1.489652 
F  1.060227   -0.028561   1.293609 
F  -1.091622   0.073978   1.273092 
H  1.056105   2.945956   -1.811496 
C  1.197072   1.877292   -1.636499 
H  1.482013   1.320002   -2.537729 
H  1.986239   1.744818   -0.888210 
O  0.086580   1.287015   -0.915716 
H  -0.725608   0.904715   -1.606725 
C  -0.053130   -0.444742   0.711178 
F  -0.105379   -1.836246   0.974126 
H  1.053045   -0.550078   -1.123031 
13 
Vibrational Frequency frame 
C  0.015666   -0.291153   -0.805605 
O  -1.100630   -0.417626   -1.489778 
F  1.060028   -0.028915   1.293501 
F  -1.091167   0.073469   1.272867 
H  1.062176   2.948710   -1.810930 
C  1.196045   1.878027   -1.638191 
H  1.488251   1.319436   -2.537205 
H  1.979913   1.740368   -0.883589 
O  0.086901   1.286117   -0.914249 
H  -0.718668   0.901488   -1.613265 
C  -0.053378   -0.440079   0.710984 
F  -0.105452   -1.837930   0.974510 
H  1.059726   -0.541527   -1.117792 
13 
Vibrational Frequency frame 
C  0.016307   -0.291975   -0.805958 
O  -1.101929   -0.417329   -1.489904 
F  1.059830   -0.029269   1.293394 
F  -1.090712   0.072960   1.272642 
H  1.068247   2.951463   -1.810365 
C  1.195017   1.878761   -1.639884 
H  1.494489   1.318869   -2.536680 
H  1.973587   1.735918   -0.878968 
O  0.087222   1.285220   -0.912782 
H  -0.711728   0.898261   -1.619805 
C  -0.053626   -0.435416   0.710791 
F  -0.105525   -1.839614   0.974895 
H  1.066406   -0.532976   -1.112552 
13 
Vibrational Frequency frame 
C  0.016948   -0.292798   -0.806311 
O  -1.103228   -0.417031   -1.490030 
F  1.059632   -0.029623   1.293287 
F  -1.090256   0.072451   1.272416 
H  1.074319   2.954217   -1.809799 
C  1.193990   1.879495   -1.641576 
H  1.500727   1.318303   -2.536156 
H  1.967260   1.731468   -0.874346 
O  0.087544   1.284323   -0.911316 
H  -0.704789   0.895033   -1.626344 
C  -0.053874   -0.430753   0.710597 
F  -0.105598   -1.841298   0.975279 
H  1.073087   -0.524425   -1.107313 
13 
Vibrational Frequency frame 
C  0.017589   -0.293620   -0.806665 
O  -1.104526   -0.416734   -1.490157 
F  1.059434   -0.029977   1.293180 
F  -1.089801   0.071942   1.272191 
H  1.080390   2.956971   -1.809233 
C  1.192962   1.880230   -1.643269 
H  1.506965   1.317737   -2.535632 
H  1.960934   1.727018   -0.869725 
O  0.087865   1.283426   -0.909849 
H  -0.697849   0.891806   -1.632884 
C  -0.054122   -0.426090   0.710404 
F  -0.105672   -1.842982   0.975663 
H  1.079767   -0.515874   -1.102073 
13 
Vibrational Frequency frame 
C  0.018230   -0.294443   -0.807018 
O  -1.105825   -0.416437   -1.490283 
F  1.059236   -0.030332   1.293073 
F  -1.089346   0.071433   1.271966 
H  1.086461   2.959725   -1.808668 
C  1.191935   1.880964   -1.644961 
H  1.513203   1.317170   -2.535108 
H  1.954608   1.722568   -0.865103 
O  0.088186   1.282529   -0.908382 
H  -0.690909   0.888579   -1.639424 
C  -0.054369   -0.421427   0.710210 
F  -0.105745   -1.844666   0.976048 
H  1.086448   -0.507323   -1.096834 
13 
Vibrational Frequency frame 
C  0.018870   -0.295266   -0.807371 
O  -1.107124   -0.416139   -1.490409 
F  1.059038   -0.030686   1.292965 
F  -1.088891   0.070924   1.271741 
H  1.092533   2.962478   -1.808102 
C  1.190907   1.881699   -1.646654 
H  1.519441   1.316604   -2.534584 
H  1.948282   1.718118   -0.860482 
O  0.088507   1.281632   -0.906915 
H  -0.683969   0.885351   -1.645964 
C  -0.054617   -0.416764   0.710016 
F  -0.105818   -1.846350   0.976432 
H  1.093128   -0.498771   -1.091594 
13 
Vibrational Frequency frame 
C  0.019511   -0.296088   -0.807725 
O  -1.108422   -0.415842   -1.490536 
F  1.058840   -0.031040   1.292858 
F  -1.088436   0.070415   1.271516 
H  1.098604   2.965232   -1.807536 
C  1.189880   1.882433   -1.648346 
H  1.525678   1.316038   -2.534060 
H  1.941955   1.713667   -0.855860 
O  0.088828   1.280735   -0.905449 
H  -0.677030   0.882124   -1.652503 
C  -0.054865   -0.412101   0.709823 
F  -0.105891   -1.848034   0.976816 
H  1.099808   -0.490220   -1.086355 
13 
Vibrational Frequency frame 
C  0.020152   -0.296911   -0.808078 
O  -1.109721   -0.415544   -1.490662 
F  1.058641   -0.031394   1.292751 
F  -1.087980   0.069906   1.271291 
H  1.104675   2.967986   -1.806971 
C  1.188852   1.883168   -1.650039 
H  1.531916   1.315472   -2.533536 
H  1.935629   1.709217   -0.851239 
O  0.089149   1.279838   -0.903982 
H  -0.670090   0.878897   -1.659043 
C  -0.055113   -0.407438   0.709629 
F  -0.105965   -1.849718   0.977201 
H  1.106489   -0.481669   -1.081115 
13 
Vibrational Frequency frame 
C  0.020793   -0.297733   -0.808432 
O  -1.111020   -0.415247   -1.490788 
F  1.058443   -0.031748   1.292644 
F  -1.087525   0.069397   1.271066 
H  1.110746   2.970740   -1.806405 
C  1.187825   1.883902   -1.651731 
H  1.538154   1.314905   -2.533012 
H  1.929303   1.704767   -0.846618 
O  0.089470   1.278941   -0.902515 
H  -0.663150   0.875669   -1.665583 
C  -0.055361   -0.402775   0.709436 
F  -0.106038   -1.851402   0.977585 
H  1.113169   -0.473118   -1.075876 
13 
Vibrational Frequency frame 
C  0.021434   -0.298556   -0.808785 
O  -1.112318   -0.414949   -1.490915 
F  1.058245   -0.032103   1.292537 
F  -1.087070   0.068888   1.270840 
H  1.116818   2.973493   -1.805840 
C  1.186798   1.884637   -1.653424 
H  1.544392   1.314339   -2.532487 
H  1.922977   1.700317   -0.841996 
O  0.089792   1.278043   -0.901048 
H  -0.656211   0.872442   -1.672122 
C  -0.055609   -0.398112   0.709242 
F  -0.106111   -1.853086   0.977969 
H  1.119850   -0.464567   -1.070636 
13 
Vibrational Frequency frame 
C  0.022075   -0.299378   -0.809138 
O  -1.113617   -0.414652   -1.491041 
F  1.058047   -0.032457   1.292429 
F  -1.086615   0.068379   1.270615 
H  1.122889   2.976247   -1.805274 
C  1.185770   1.885371   -1.655116 
H  1.550630   1.313773   -2.531963 
H  1.916650   1.695867   -0.837375 
O  0.090113   1.277146   -0.899582 
H  -0.649271   0.869215   -1.678662 
C  -0.055857   -0.393449   0.709048 
F  -0.106184   -1.854770   0.978354 
H  1.126530   -0.456016   -1.065397 
13 
Vibrational Frequency frame 
C  0.022716   -0.300201   -0.809492 
O  -1.114916   -0.414355   -1.491167 
F  1.057849   -0.032811   1.292322 
F  -1.086159   0.067870   1.270390 
H  1.128960   2.979001   -1.804708 
C  1.184743   1.886105   -1.656809 
H  1.556868   1.313207   -2.531439 
H  1.910324   1.691417   -0.832753 
O  0.090434   1.276249   -0.898115 
H  -0.642331   0.865987   -1.685202 
C  -0.056105   -0.388786   0.708855 
F  -0.106258   -1.856454   0.978738 
H  1.133211   -0.447465   -1.060157 
13 
Vibrational Frequency frame 
C  0.022075   -0.299378   -0.809138 
O  -1.113617   -0.414652   -1.491041 
F  1.058047   -0.032457   1.292429 
F  -1.086615   0.068379   1.270615 
H  1.122889   2.976247   -1.805274 
C  1.185770   1.885371   -1.655116 
H  1.550630   1.313773   -2.531963 
H  1.916650   1.695867   -0.837375 
O  0.090113   1.277146   -0.899582 
H  -0.649271   0.869215   -1.678662 
C  -0.055857   -0.393449   0.709048 
F  -0.106184   -1.854770   0.978354 
H  1.126530   -0.456016   -1.065397 
13 
Vibrational Frequency frame 
C  0.021434   -0.298556   -0.808785 
O  -1.112318   -0.414949   -1.490915 
F  1.058245   -0.032103   1.292537 
F  -1.087070   0.068888   1.270840 
H  1.116818   2.973493   -1.805840 
C  1.186798   1.884637   -1.653424 
H  1.544392   1.314339   -2.532487 
H  1.922977   1.700317   -0.841996 
O  0.089792   1.278043   -0.901048 
H  -0.656211   0.872442   -1.672122 
C  -0.055609   -0.398112   0.709242 
F  -0.106111   -1.853086   0.977969 
H  1.119850   -0.464567   -1.070636 
13 
Vibrational Frequency frame 
C  0.020793   -0.297733   -0.808432 
O  -1.111020   -0.415247   -1.490788 
F  1.058443   -0.031748   1.292644 
F  -1.087525   0.069397   1.271066 
H  1.110746   2.970740   -1.806405 
C  1.187825   1.883902   -1.651731 
H  1.538154   1.314905   -2.533012 
H  1.929303   1.704767   -0.846618 
O  0.089470   1.278941   -0.902515 
H  -0.663150   0.875669   -1.665583 
C  -0.055361   -0.402775   0.709436 
F  -0.106038   -1.851402   0.977585 
H  1.113169   -0.473118   -1.075876 
13 
Vibrational Frequency frame 
C  0.020152   -0.296911   -0.808078 
O  -1.109721   -0.415544   -1.490662 
F  1.058641   -0.031394   1.292751 
F  -1.087980   0.069906   1.271291 
H  1.104675   2.967986   -1.806971 
C  1.188852   1.883168   -1.650039 
H  1.531916   1.315472   -2.533536 
H  1.935629   1.709217   -0.851239 
O  0.089149   1.279838   -0.903982 
H  -0.670090   0.878897   -1.659043 
C  -0.055113   -0.407438   0.709629 
F  -0.105965   -1.849718   0.977201 
H  1.106489   -0.481669   -1.081115 
13 
Vibrational Frequency frame 
C  0.019511   -0.296088   -0.807725 
O  -1.108422   -0.415842   -1.490536 
F  1.058840   -0.031040   1.292858 
F  -1.088436   0.070415   1.271516 
H  1.098604   2.965232   -1.807536 
C  1.189880   1.882433   -1.648346 
H  1.525678   1.316038   -2.534060 
H  1.941955   1.713667   -0.855860 
O  0.088828   1.280735   -0.905449 
H  -0.677030   0.882124   -1.652503 
C  -0.054865   -0.412101   0.709823 
F  -0.105891   -1.848034   0.976816 
H  1.099808   -0.490220   -1.086355 
13 
Vibrational Frequency frame 
C  0.018870   -0.295266   -0.807371 
O  -1.107124   -0.416139   -1.490409 
F  1.059038   -0.030686   1.292965 
F  -1.088891   0.070924   1.271741 
H  1.092533   2.962478   -1.808102 
C  1.190907   1.881699   -1.646654 
H  1.519441   1.316604   -2.534584 
H  1.948282   1.718118   -0.860482 
O  0.088507   1.281632   -0.906915 
H  -0.683969   0.885351   -1.645964 
C  -0.054617   -0.416764   0.710016 
F  -0.105818   -1.846350   0.976432 
H  1.093128   -0.498771   -1.091594 
13 
Vibrational Frequency frame 
C  0.018230   -0.294443   -0.807018 
O  -1.105825   -0.416437   -1.490283 
F  1.059236   -0.030332   1.293073 
F  -1.089346   0.071433   1.271966 
H  1.086461   2.959725   -1.808668 
C  1.191935   1.880964   -1.644961 
H  1.513203   1.317170   -2.535108 
H  1.954608   1.722568   -0.865103 
O  0.088186   1.282529   -0.908382 
H  -0.690909   0.888579   -1.639424 
C  -0.054369   -0.421427   0.710210 
F  -0.105745   -1.844666   0.976048 
H  1.086448   -0.507323   -1.096834 
13 
Vibrational Frequency frame 
C  0.017589   -0.293620   -0.806665 
O  -1.104526   -0.416734   -1.490157 
F  1.059434   -0.029977   1.293180 
F  -1.089801   0.071942   1.272191 
H  1.080390   2.956971   -1.809233 
C  1.192962   1.880230   -1.643269 
H  1.506965   1.317737   -2.535632 
H  1.960934   1.727018   -0.869725 
O  0.087865   1.283426   -0.909849 
H  -0.697849   0.891806   -1.632884 
C  -0.054122   -0.426090   0.710404 
F  -0.105672   -1.842982   0.975663 
H  1.079767   -0.515874   -1.102073 
13 
Vibrational Frequency frame 
C  0.016948   -0.292798   -0.806311 
O  -1.103228   -0.417031   -1.490030 
F  1.059632   -0.029623   1.293287 
F  -1.090256   0.072451   1.272416 
H  1.074319   2.954217   -1.809799 
C  1.193990   1.879495   -1.641576 
H  1.500727   1.318303   -2.536156 
H  1.967260   1.731468   -0.874346 
O  0.087544   1.284323   -0.911316 
H  -0.704789   0.895033   -1.626344 
C  -0.053874   -0.430753   0.710597 
F  -0.105598   -1.841298   0.975279 
H  1.073087   -0.524425   -1.107313 
13 
Vibrational Frequency frame 
C  0.016307   -0.291975   -0.805958 
O  -1.101929   -0.417329   -1.489904 
F  1.059830   -0.029269   1.293394 
F  -1.090712   0.072960   1.272642 
H  1.068247   2.951463   -1.810365 
C  1.195017   1.878761   -1.639884 
H  1.494489   1.318869   -2.536680 
H  1.973587   1.735918   -0.878968 
O  0.087222   1.285220   -0.912782 
H  -0.711728   0.898261   -1.619805 
C  -0.053626   -0.435416   0.710791 
F  -0.105525   -1.839614   0.974895 
H  1.066406   -0.532976   -1.112552 
13 
Vibrational Frequency frame 
C  0.015666   -0.291153   -0.805605 
O  -1.100630   -0.417626   -1.489778 
F  1.060028   -0.028915   1.293501 
F  -1.091167   0.073469   1.272867 
H  1.062176   2.948710   -1.810930 
C  1.196045   1.878027   -1.638191 
H  1.488251   1.319436   -2.537205 
H  1.979913   1.740368   -0.883589 
O  0.086901   1.286117   -0.914249 
H  -0.718668   0.901488   -1.613265 
C  -0.053378   -0.440079   0.710984 
F  -0.105452   -1.837930   0.974510 
H  1.059726   -0.541527   -1.117792 
13 
Vibrational Frequency frame 
C  0.015025   -0.290330   -0.805251 
O  -1.099332   -0.417924   -1.489652 
F  1.060227   -0.028561   1.293609 
F  -1.091622   0.073978   1.273092 
H  1.056105   2.945956   -1.811496 
C  1.197072   1.877292   -1.636499 
H  1.482013   1.320002   -2.537729 
H  1.986239   1.744818   -0.888210 
O  0.086580   1.287015   -0.915716 
H  -0.725608   0.904715   -1.606725 
C  -0.053130   -0.444742   0.711178 
F  -0.105379   -1.836246   0.974126 
H  1.053045   -0.550078   -1.123031 
13 
Vibrational Frequency frame 
C  0.014384   -0.289508   -0.804898 
O  -1.098033   -0.418221   -1.489525 
F  1.060425   -0.028207   1.293716 
F  -1.092077   0.074487   1.273317 
H  1.050034   2.943202   -1.812062 
C  1.198100   1.876558   -1.634806 
H  1.475775   1.320568   -2.538253 
H  1.992565   1.749268   -0.892832 
O  0.086259   1.287912   -0.917183 
H  -0.732548   0.907943   -1.600186 
C  -0.052882   -0.449405   0.711371 
F  -0.105305   -1.834562   0.973742 
H  1.046365   -0.558629   -1.128271 
13 
Vibrational Frequency frame 
C  0.013743   -0.288685   -0.804545 
O  -1.096735   -0.418518   -1.489399 
F  1.060623   -0.027852   1.293823 
F  -1.092532   0.074996   1.273542 
H  1.043962   2.940449   -1.812627 
C  1.199127   1.875823   -1.633114 
H  1.469537   1.321134   -2.538777 
H  1.998892   1.753718   -0.897453 
O  0.085938   1.288809   -0.918649 
H  -0.739487   0.911170   -1.593646 
C  -0.052634   -0.454068   0.711565 
F  -0.105232   -1.832878   0.973357 
H  1.039684   -0.567180   -1.133510 
13 
Vibrational Frequency frame 
C  0.013102   -0.287863   -0.804191 
O  -1.095436   -0.418816   -1.489273 
F  1.060821   -0.027498   1.293930 
F  -1.092988   0.075505   1.273767 
H  1.037891   2.937695   -1.813193 
C  1.200155   1.875089   -1.631421 
H  1.463300   1.321701   -2.539301 
H  2.005218   1.758168   -0.902075 
O  0.085617   1.289706   -0.920116 
H  -0.746427   0.914397   -1.587106 
C  -0.052387   -0.458731   0.711759 
F  -0.105159   -1.831194   0.972973 
H  1.033004   -0.575732   -1.138750 
13 
Vibrational Frequency frame 
C  0.012462   -0.287040   -0.803838 
O  -1.094137   -0.419113   -1.489146 
F  1.061019   -0.027144   1.294038 
F  -1.093443   0.076014   1.273992 
H  1.031820   2.934941   -1.813759 
C  1.201182   1.874354   -1.629729 
H  1.457062   1.322267   -2.539825 
H  2.011544   1.762619   -0.906696 
O  0.085296   1.290603   -0.921583 
H  -0.753367   0.917625   -1.580566 
C  -0.052139   -0.463394   0.711952 
F  -0.105085   -1.829510   0.972589 
H  1.026323   -0.584283   -1.143990 
13 
Vibrational Frequency frame 
C  0.011821   -0.286217   -0.803484 
O  -1.092839   -0.419411   -1.489020 
F  1.061217   -0.026790   1.294145 
F  -1.093898   0.076523   1.274217 
H  1.025749   2.932187   -1.814324 
C  1.202209   1.873620   -1.628036 
H  1.450824   1.322833   -2.540349 
H  2.017870   1.767069   -0.911317 
O  0.084974   1.291500   -0.923050 
H  -0.760307   0.920852   -1.574027 
C  -0.051891   -0.468057   0.712146 
F  -0.105012   -1.827826   0.972204 
H  1.019643   -0.592834   -1.149229 
13 
Vibrational Frequency frame 
C  0.011180   -0.285395   -0.803131 
O  -1.091540   -0.419708   -1.488894 
F  1.061415   -0.026436   1.294252 
F  -1.094353   0.077032   1.274443 
H  1.019677   2.929434   -1.814890 
C  1.203237   1.872885   -1.626344 
H  1.444586   1.323400   -2.540874 
H  2.024197   1.771519   -0.915939 
O  0.084653   1.292397   -0.924516 
H  -0.767246   0.924079   -1.567487 
C  -0.051643   -0.472720   0.712339 
F  -0.104939   -1.826142   0.971820 
H  1.012962   -0.601385   -1.154469 
13 
Vibrational Frequency frame 
C  0.010539   -0.284572   -0.802778 
O  -1.090241   -0.420006   -1.488767 
F  1.061614   -0.026082   1.294359 
F  -1.094809   0.077541   1.274668 
H  1.013606   2.926680   -1.815455 
C  1.204264   1.872151   -1.624651 
H  1.438348   1.323966   -2.541398 
H  2.030523   1.775969   -0.920560 
O  0.084332   1.293294   -0.925983 
H  -0.774186   0.927306   -1.560947 
C  -0.051395   -0.477384   0.712533 
F  -0.104866   -1.824458   0.971436 
H  1.006282   -0.609936   -1.159708 
13 
Vibrational Frequency frame 
C  0.009898   -0.283750   -0.802424 
O  -1.088943   -0.420303   -1.488641 
F  1.061812   -0.025727   1.294466 
F  -1.095264   0.078050   1.274893 
H  1.007535   2.923926   -1.816021 
C  1.205292   1.871416   -1.622959 
H  1.432110   1.324532   -2.541922 
H  2.036849   1.780419   -0.925182 
O  0.084011   1.294191   -0.927450 
H  -0.781126   0.930534   -1.554408 
C  -0.051147   -0.482047   0.712727 
F  -0.104792   -1.822774   0.971051 
H  0.999602   -0.618487   -1.164948 
13 
Vibrational Frequency frame 
C  0.009257   -0.282927   -0.802071 
O  -1.087644   -0.420600   -1.488515 
F  1.062010   -0.025373   1.294574 
F  -1.095719   0.078559   1.275118 
H  1.001464   2.921173   -1.816587 
C  1.206319   1.870682   -1.621266 
H  1.425872   1.325098   -2.542446 
H  2.043175   1.784869   -0.929803 
O  0.083690   1.295089   -0.928917 
H  -0.788066   0.933761   -1.547868 
C  -0.050899   -0.486710   0.712920 
F  -0.104719   -1.821090   0.970667 
H  0.992921   -0.627038   -1.170187 
13 
Vibrational Frequency frame 
C  0.008616   -0.282105   -0.801718 
O  -1.086345   -0.420898   -1.488388 
F  1.062208   -0.025019   1.294681 
F  -1.096174   0.079068   1.275343 
H  0.995392   2.918419   -1.817152 
C  1.207347   1.869948   -1.619574 
H  1.419634   1.325665   -2.542970 
H  2.049502   1.789319   -0.934425 
O  0.083369   1.295986   -0.930383 
H  -0.795005   0.936988   -1.541328 
C  -0.050652   -0.491373   0.713114 
F  -0.104646   -1.819406   0.970283 
H  0.986241   -0.635589   -1.175427 
13 
Vibrational Frequency frame 
C  0.007975   -0.281282   -0.801364 
O  -1.085047   -0.421195   -1.488262 
F  1.062406   -0.024665   1.294788 
F  -1.096629   0.079576   1.275568 
H  0.989321   2.915665   -1.817718 
C  1.208374   1.869213   -1.617882 
H  1.413396   1.326231   -2.543494 
H  2.055828   1.793769   -0.939046 
O  0.083048   1.296883   -0.931850 
H  -0.801945   0.940216   -1.534788 
C  -0.050404   -0.496036   0.713307 
F  -0.104573   -1.817722   0.969898 
H  0.979560   -0.644141   -1.180666 
13 
Vibrational Frequency frame 
C  0.007334   -0.280460   -0.801011 
O  -1.083748   -0.421493   -1.488136 
F  1.062604   -0.024311   1.294895 
F  -1.097085   0.080085   1.275793 
H  0.983250   2.912911   -1.818284 
C  1.209402   1.868479   -1.616189 
H  1.407159   1.326797   -2.544018 
H  2.062154   1.798219   -0.943667 
O  0.082727   1.297780   -0.933317 
H  -0.808885   0.943443   -1.528249 
C  -0.050156   -0.500699   0.713501 
F  -0.104499   -1.816038   0.969514 
H  0.972880   -0.652692   -1.185906 
