13 
Vibrational Frequency frame 
C  0.006694   -0.279637   -0.800658 
O  -1.082449   -0.421790   -1.488009 
F  1.062803   -0.023956   1.295002 
F  -1.097540   0.080594   1.276019 
H  0.977178   2.910158   -1.818849 
C  1.210429   1.867744   -1.614497 
H  1.400921   1.327364   -2.544542 
H  2.068480   1.802669   -0.948289 
O  0.082405   1.298677   -0.934784 
H  -0.815825   0.946670   -1.521709 
C  -0.049908   -0.505362   0.713694 
F  -0.104426   -1.814354   0.969130 
H  0.966199   -0.661243   -1.191145 
13 
Vibrational Frequency frame 
C  0.006694   -0.279637   -0.800658 
O  -1.082449   -0.421790   -1.488009 
F  1.062803   -0.023956   1.295002 
F  -1.097540   0.080594   1.276019 
H  0.977178   2.910158   -1.818849 
C  1.210429   1.867744   -1.614497 
H  1.400921   1.327364   -2.544542 
H  2.068480   1.802669   -0.948289 
O  0.082405   1.298677   -0.934784 
H  -0.815825   0.946670   -1.521709 
C  -0.049908   -0.505362   0.713694 
F  -0.104426   -1.814354   0.969130 
H  0.966199   -0.661243   -1.191145 
13 
Vibrational Frequency frame 
C  0.005354   -0.281295   -0.801251 
O  -1.081990   -0.422878   -1.487581 
F  1.062817   -0.023927   1.294992 
F  -1.097546   0.080612   1.276050 
H  0.977875   2.910529   -1.819216 
C  1.210467   1.868037   -1.614735 
H  1.400776   1.327061   -2.544369 
H  2.067772   1.802264   -0.947822 
O  0.082287   1.299583   -0.934831 
H  -0.805464   0.964554   -1.518501 
C  -0.049991   -0.505405   0.713665 
F  -0.104408   -1.814347   0.969154 
H  0.966596   -0.660158   -1.191262 
13 
Vibrational Frequency frame 
C  0.004014   -0.282953   -0.801844 
O  -1.081531   -0.423966   -1.487153 
F  1.062832   -0.023897   1.294982 
F  -1.097552   0.080630   1.276081 
H  0.978572   2.910900   -1.819583 
C  1.210505   1.868330   -1.614974 
H  1.400631   1.326759   -2.544197 
H  2.067063   1.801859   -0.947356 
O  0.082168   1.300488   -0.934879 
H  -0.795104   0.982438   -1.515293 
C  -0.050075   -0.505448   0.713635 
F  -0.104391   -1.814341   0.969179 
H  0.966993   -0.659073   -1.191379 
13 
Vibrational Frequency frame 
C  0.002675   -0.284611   -0.802437 
O  -1.081072   -0.425053   -1.486725 
F  1.062847   -0.023867   1.294971 
F  -1.097558   0.080648   1.276112 
H  0.979269   2.911271   -1.819949 
C  1.210542   1.868623   -1.615213 
H  1.400486   1.326457   -2.544024 
H  2.066354   1.801454   -0.946890 
O  0.082049   1.301394   -0.934927 
H  -0.784744   1.000321   -1.512085 
C  -0.050158   -0.505491   0.713605 
F  -0.104373   -1.814334   0.969204 
H  0.967390   -0.657988   -1.191496 
13 
Vibrational Frequency frame 
C  0.001335   -0.286269   -0.803030 
O  -1.080613   -0.426141   -1.486297 
F  1.062862   -0.023837   1.294961 
F  -1.097564   0.080666   1.276143 
H  0.979965   2.911642   -1.820316 
C  1.210580   1.868916   -1.615451 
H  1.400341   1.326155   -2.543851 
H  2.065645   1.801049   -0.946424 
O  0.081930   1.302299   -0.934975 
H  -0.774384   1.018205   -1.508878 
C  -0.050241   -0.505534   0.713575 
F  -0.104356   -1.814327   0.969229 
H  0.967787   -0.656903   -1.191613 
13 
Vibrational Frequency frame 
C  -0.000004   -0.287927   -0.803623 
O  -1.080154   -0.427229   -1.485869 
F  1.062876   -0.023807   1.294951 
F  -1.097571   0.080684   1.276174 
H  0.980662   2.912013   -1.820683 
C  1.210618   1.869209   -1.615690 
H  1.400197   1.325853   -2.543678 
H  2.064936   1.800643   -0.945957 
O  0.081811   1.303205   -0.935023 
H  -0.764024   1.036089   -1.505670 
C  -0.050325   -0.505577   0.713545 
F  -0.104338   -1.814321   0.969254 
H  0.968184   -0.655818   -1.191730 
13 
Vibrational Frequency frame 
C  -0.001344   -0.289585   -0.804216 
O  -1.079695   -0.428317   -1.485441 
F  1.062891   -0.023777   1.294940 
F  -1.097577   0.080701   1.276206 
H  0.981359   2.912384   -1.821049 
C  1.210656   1.869502   -1.615929 
H  1.400052   1.325551   -2.543505 
H  2.064228   1.800238   -0.945491 
O  0.081692   1.304111   -0.935070 
H  -0.753664   1.053972   -1.502462 
C  -0.050408   -0.505620   0.713516 
F  -0.104321   -1.814314   0.969278 
H  0.968581   -0.654733   -1.191847 
13 
Vibrational Frequency frame 
C  -0.002684   -0.291243   -0.804809 
O  -1.079236   -0.429404   -1.485013 
F  1.062906   -0.023747   1.294930 
F  -1.097583   0.080719   1.276237 
H  0.982055   2.912755   -1.821416 
C  1.210693   1.869795   -1.616168 
H  1.399907   1.325249   -2.543332 
H  2.063519   1.799833   -0.945025 
O  0.081573   1.305016   -0.935118 
H  -0.743304   1.071856   -1.499254 
C  -0.050491   -0.505663   0.713486 
F  -0.104303   -1.814307   0.969303 
H  0.968978   -0.653648   -1.191964 
13 
Vibrational Frequency frame 
C  -0.004023   -0.292901   -0.805402 
O  -1.078777   -0.430492   -1.484585 
F  1.062921   -0.023717   1.294920 
F  -1.097589   0.080737   1.276268 
H  0.982752   2.913126   -1.821783 
C  1.210731   1.870088   -1.616406 
H  1.399762   1.324946   -2.543159 
H  2.062810   1.799428   -0.944558 
O  0.081455   1.305922   -0.935166 
H  -0.732944   1.089740   -1.496046 
C  -0.050575   -0.505706   0.713456 
F  -0.104285   -1.814301   0.969328 
H  0.969375   -0.652563   -1.192081 
13 
Vibrational Frequency frame 
C  -0.005363   -0.294559   -0.805995 
O  -1.078318   -0.431580   -1.484157 
F  1.062936   -0.023687   1.294909 
F  -1.097595   0.080755   1.276299 
H  0.983449   2.913497   -1.822149 
C  1.210769   1.870381   -1.616645 
H  1.399617   1.324644   -2.542986 
H  2.062101   1.799023   -0.944092 
O  0.081336   1.306827   -0.935214 
H  -0.722584   1.107623   -1.492838 
C  -0.050658   -0.505749   0.713426 
F  -0.104268   -1.814294   0.969353 
H  0.969772   -0.651478   -1.192198 
13 
Vibrational Frequency frame 
C  -0.006702   -0.296218   -0.806588 
O  -1.077859   -0.432668   -1.483729 
F  1.062950   -0.023657   1.294899 
F  -1.097601   0.080773   1.276330 
H  0.984145   2.913868   -1.822516 
C  1.210806   1.870674   -1.616884 
H  1.399472   1.324342   -2.542813 
H  2.061393   1.798617   -0.943626 
O  0.081217   1.307733   -0.935262 
H  -0.712224   1.125507   -1.489631 
C  -0.050741   -0.505792   0.713397 
F  -0.104250   -1.814287   0.969377 
H  0.970169   -0.650393   -1.192315 
13 
Vibrational Frequency frame 
C  -0.008042   -0.297876   -0.807181 
O  -1.077400   -0.433755   -1.483301 
F  1.062965   -0.023627   1.294888 
F  -1.097607   0.080791   1.276361 
H  0.984842   2.914239   -1.822883 
C  1.210844   1.870967   -1.617123 
H  1.399328   1.324040   -2.542640 
H  2.060684   1.798212   -0.943159 
O  0.081098   1.308639   -0.935309 
H  -0.701864   1.143391   -1.486423 
C  -0.050825   -0.505835   0.713367 
F  -0.104233   -1.814281   0.969402 
H  0.970566   -0.649308   -1.192432 
13 
Vibrational Frequency frame 
C  -0.009381   -0.299534   -0.807774 
O  -1.076941   -0.434843   -1.482872 
F  1.062980   -0.023597   1.294878 
F  -1.097613   0.080808   1.276393 
H  0.985539   2.914610   -1.823250 
C  1.210882   1.871259   -1.617361 
H  1.399183   1.323738   -2.542467 
H  2.059975   1.797807   -0.942693 
O  0.080979   1.309544   -0.935357 
H  -0.691504   1.161274   -1.483215 
C  -0.050908   -0.505878   0.713337 
F  -0.104215   -1.814274   0.969427 
H  0.970964   -0.648224   -1.192549 
13 
Vibrational Frequency frame 
C  -0.010721   -0.301192   -0.808367 
O  -1.076482   -0.435931   -1.482444 
F  1.062995   -0.023568   1.294868 
F  -1.097620   0.080826   1.276424 
H  0.986235   2.914981   -1.823616 
C  1.210920   1.871552   -1.617600 
H  1.399038   1.323436   -2.542294 
H  2.059266   1.797402   -0.942227 
O  0.080860   1.310450   -0.935405 
H  -0.681144   1.179158   -1.480007 
C  -0.050991   -0.505921   0.713307 
F  -0.104198   -1.814267   0.969452 
H  0.971361   -0.647139   -1.192666 
13 
Vibrational Frequency frame 
C  -0.012061   -0.302850   -0.808960 
O  -1.076023   -0.437019   -1.482016 
F  1.063009   -0.023538   1.294857 
F  -1.097626   0.080844   1.276455 
H  0.986932   2.915352   -1.823983 
C  1.210957   1.871845   -1.617839 
H  1.398893   1.323134   -2.542121 
H  2.058557   1.796997   -0.941760 
O  0.080742   1.311355   -0.935453 
H  -0.670784   1.197042   -1.476799 
C  -0.051075   -0.505964   0.713277 
F  -0.104180   -1.814261   0.969477 
H  0.971758   -0.646054   -1.192783 
13 
Vibrational Frequency frame 
C  -0.013400   -0.304508   -0.809553 
O  -1.075564   -0.438107   -1.481588 
F  1.063024   -0.023508   1.294847 
F  -1.097632   0.080862   1.276486 
H  0.987629   2.915722   -1.824350 
C  1.210995   1.872138   -1.618078 
H  1.398748   1.322831   -2.541948 
H  2.057849   1.796591   -0.941294 
O  0.080623   1.312261   -0.935501 
H  -0.660424   1.214925   -1.473591 
C  -0.051158   -0.506007   0.713248 
F  -0.104162   -1.814254   0.969501 
H  0.972155   -0.644969   -1.192900 
13 
Vibrational Frequency frame 
C  -0.014740   -0.306166   -0.810146 
O  -1.075105   -0.439194   -1.481160 
F  1.063039   -0.023478   1.294837 
F  -1.097638   0.080880   1.276517 
H  0.988325   2.916093   -1.824716 
C  1.211033   1.872431   -1.618316 
H  1.398603   1.322529   -2.541775 
H  2.057140   1.796186   -0.940828 
O  0.080504   1.313167   -0.935548 
H  -0.650063   1.232809   -1.470383 
C  -0.051241   -0.506050   0.713218 
F  -0.104145   -1.814248   0.969526 
H  0.972552   -0.643884   -1.193017 
13 
Vibrational Frequency frame 
C  -0.016079   -0.307824   -0.810739 
O  -1.074646   -0.440282   -1.480732 
F  1.063054   -0.023448   1.294826 
F  -1.097644   0.080898   1.276548 
H  0.989022   2.916464   -1.825083 
C  1.211070   1.872724   -1.618555 
H  1.398459   1.322227   -2.541602 
H  2.056431   1.795781   -0.940362 
O  0.080385   1.314072   -0.935596 
H  -0.639703   1.250693   -1.467176 
C  -0.051325   -0.506093   0.713188 
F  -0.104127   -1.814241   0.969551 
H  0.972949   -0.642799   -1.193134 
13 
Vibrational Frequency frame 
C  -0.017419   -0.309482   -0.811332 
O  -1.074187   -0.441370   -1.480304 
F  1.063069   -0.023418   1.294816 
F  -1.097650   0.080915   1.276580 
H  0.989719   2.916835   -1.825450 
C  1.211108   1.873017   -1.618794 
H  1.398314   1.321925   -2.541429 
H  2.055722   1.795376   -0.939895 
O  0.080266   1.314978   -0.935644 
H  -0.629343   1.268576   -1.463968 
C  -0.051408   -0.506136   0.713158 
F  -0.104110   -1.814234   0.969576 
H  0.973346   -0.641714   -1.193251 
13 
Vibrational Frequency frame 
C  -0.018759   -0.311140   -0.811925 
O  -1.073728   -0.442458   -1.479876 
F  1.063083   -0.023388   1.294806 
F  -1.097656   0.080933   1.276611 
H  0.990415   2.917206   -1.825816 
C  1.211146   1.873310   -1.619032 
H  1.398169   1.321623   -2.541256 
H  2.055014   1.794970   -0.939429 
O  0.080147   1.315883   -0.935692 
H  -0.618983   1.286460   -1.460760 
C  -0.051491   -0.506179   0.713128 
F  -0.104092   -1.814228   0.969600 
H  0.973743   -0.640629   -1.193368 
13 
Vibrational Frequency frame 
C  -0.020098   -0.312798   -0.812518 
O  -1.073269   -0.443545   -1.479448 
F  1.063098   -0.023358   1.294795 
F  -1.097663   0.080951   1.276642 
H  0.991112   2.917577   -1.826183 
C  1.211184   1.873603   -1.619271 
H  1.398024   1.321321   -2.541083 
H  2.054305   1.794565   -0.938963 
O  0.080029   1.316789   -0.935740 
H  -0.608623   1.304344   -1.457552 
C  -0.051574   -0.506222   0.713099 
F  -0.104074   -1.814221   0.969625 
H  0.974140   -0.639544   -1.193485 
13 
Vibrational Frequency frame 
C  -0.021438   -0.314456   -0.813111 
O  -1.072810   -0.444633   -1.479020 
F  1.063113   -0.023328   1.294785 
F  -1.097669   0.080969   1.276673 
H  0.991809   2.917948   -1.826550 
C  1.211221   1.873896   -1.619510 
H  1.397879   1.321019   -2.540910 
H  2.053596   1.794160   -0.938496 
O  0.079910   1.317695   -0.935787 
H  -0.598263   1.322227   -1.454344 
C  -0.051658   -0.506265   0.713069 
F  -0.104057   -1.814214   0.969650 
H  0.974537   -0.638459   -1.193602 
13 
Vibrational Frequency frame 
C  -0.022777   -0.316114   -0.813704 
O  -1.072351   -0.445721   -1.478592 
F  1.063128   -0.023298   1.294775 
F  -1.097675   0.080987   1.276704 
H  0.992505   2.918319   -1.826916 
C  1.211259   1.874189   -1.619749 
H  1.397734   1.320716   -2.540737 
H  2.052887   1.793755   -0.938030 
O  0.079791   1.318600   -0.935835 
H  -0.587903   1.340111   -1.451136 
C  -0.051741   -0.506308   0.713039 
F  -0.104039   -1.814208   0.969675 
H  0.974934   -0.637374   -1.193719 
13 
Vibrational Frequency frame 
C  -0.024117   -0.317772   -0.814297 
O  -1.071892   -0.446809   -1.478164 
F  1.063142   -0.023268   1.294764 
F  -1.097681   0.081005   1.276735 
H  0.993202   2.918690   -1.827283 
C  1.211297   1.874482   -1.619987 
H  1.397590   1.320414   -2.540564 
H  2.052178   1.793350   -0.937564 
O  0.079672   1.319506   -0.935883 
H  -0.577543   1.357995   -1.447929 
C  -0.051824   -0.506351   0.713009 
F  -0.104022   -1.814201   0.969700 
H  0.975331   -0.636289   -1.193836 
13 
Vibrational Frequency frame 
C  -0.025456   -0.319430   -0.814890 
O  -1.071433   -0.447896   -1.477736 
F  1.063157   -0.023238   1.294754 
F  -1.097687   0.081022   1.276766 
H  0.993899   2.919061   -1.827650 
C  1.211334   1.874775   -1.620226 
H  1.397445   1.320112   -2.540391 
H  2.051470   1.792944   -0.937097 
O  0.079553   1.320411   -0.935931 
H  -0.567183   1.375878   -1.444721 
C  -0.051908   -0.506394   0.712980 
F  -0.104004   -1.814194   0.969724 
H  0.975728   -0.635204   -1.193953 
13 
Vibrational Frequency frame 
C  -0.026796   -0.321088   -0.815483 
O  -1.070974   -0.448984   -1.477307 
F  1.063172   -0.023208   1.294743 
F  -1.097693   0.081040   1.276798 
H  0.994595   2.919432   -1.828017 
C  1.211372   1.875068   -1.620465 
H  1.397300   1.319810   -2.540219 
H  2.050761   1.792539   -0.936631 
O  0.079434   1.321317   -0.935979 
H  -0.556823   1.393762   -1.441513 
C  -0.051991   -0.506437   0.712950 
F  -0.103987   -1.814188   0.969749 
H  0.976125   -0.634119   -1.194070 
13 
Vibrational Frequency frame 
C  -0.025456   -0.319430   -0.814890 
O  -1.071433   -0.447896   -1.477736 
F  1.063157   -0.023238   1.294754 
F  -1.097687   0.081022   1.276766 
H  0.993899   2.919061   -1.827650 
C  1.211334   1.874775   -1.620226 
H  1.397445   1.320112   -2.540391 
H  2.051470   1.792944   -0.937097 
O  0.079553   1.320411   -0.935931 
H  -0.567183   1.375878   -1.444721 
C  -0.051908   -0.506394   0.712980 
F  -0.104004   -1.814194   0.969724 
H  0.975728   -0.635204   -1.193953 
13 
Vibrational Frequency frame 
C  -0.024117   -0.317772   -0.814297 
O  -1.071892   -0.446809   -1.478164 
F  1.063142   -0.023268   1.294764 
F  -1.097681   0.081005   1.276735 
H  0.993202   2.918690   -1.827283 
C  1.211297   1.874482   -1.619987 
H  1.397590   1.320414   -2.540564 
H  2.052178   1.793350   -0.937564 
O  0.079672   1.319506   -0.935883 
H  -0.577543   1.357995   -1.447929 
C  -0.051824   -0.506351   0.713009 
F  -0.104022   -1.814201   0.969700 
H  0.975331   -0.636289   -1.193836 
13 
Vibrational Frequency frame 
C  -0.022777   -0.316114   -0.813704 
O  -1.072351   -0.445721   -1.478592 
F  1.063128   -0.023298   1.294775 
F  -1.097675   0.080987   1.276704 
H  0.992505   2.918319   -1.826916 
C  1.211259   1.874189   -1.619749 
H  1.397734   1.320716   -2.540737 
H  2.052887   1.793755   -0.938030 
O  0.079791   1.318600   -0.935835 
H  -0.587903   1.340111   -1.451136 
C  -0.051741   -0.506308   0.713039 
F  -0.104039   -1.814208   0.969675 
H  0.974934   -0.637374   -1.193719 
13 
Vibrational Frequency frame 
C  -0.021438   -0.314456   -0.813111 
O  -1.072810   -0.444633   -1.479020 
F  1.063113   -0.023328   1.294785 
F  -1.097669   0.080969   1.276673 
H  0.991809   2.917948   -1.826550 
C  1.211221   1.873896   -1.619510 
H  1.397879   1.321019   -2.540910 
H  2.053596   1.794160   -0.938496 
O  0.079910   1.317695   -0.935787 
H  -0.598263   1.322227   -1.454344 
C  -0.051658   -0.506265   0.713069 
F  -0.104057   -1.814214   0.969650 
H  0.974537   -0.638459   -1.193602 
13 
Vibrational Frequency frame 
C  -0.020098   -0.312798   -0.812518 
O  -1.073269   -0.443545   -1.479448 
F  1.063098   -0.023358   1.294795 
F  -1.097663   0.080951   1.276642 
H  0.991112   2.917577   -1.826183 
C  1.211184   1.873603   -1.619271 
H  1.398024   1.321321   -2.541083 
H  2.054305   1.794565   -0.938963 
O  0.080029   1.316789   -0.935740 
H  -0.608623   1.304344   -1.457552 
C  -0.051574   -0.506222   0.713099 
F  -0.104074   -1.814221   0.969625 
H  0.974140   -0.639544   -1.193485 
13 
Vibrational Frequency frame 
C  -0.018759   -0.311140   -0.811925 
O  -1.073728   -0.442458   -1.479876 
F  1.063083   -0.023388   1.294806 
F  -1.097656   0.080933   1.276611 
H  0.990415   2.917206   -1.825816 
C  1.211146   1.873310   -1.619032 
H  1.398169   1.321623   -2.541256 
H  2.055014   1.794970   -0.939429 
O  0.080147   1.315883   -0.935692 
H  -0.618983   1.286460   -1.460760 
C  -0.051491   -0.506179   0.713128 
F  -0.104092   -1.814228   0.969600 
H  0.973743   -0.640629   -1.193368 
13 
Vibrational Frequency frame 
C  -0.017419   -0.309482   -0.811332 
O  -1.074187   -0.441370   -1.480304 
F  1.063069   -0.023418   1.294816 
F  -1.097650   0.080915   1.276580 
H  0.989719   2.916835   -1.825450 
C  1.211108   1.873017   -1.618794 
H  1.398314   1.321925   -2.541429 
H  2.055722   1.795376   -0.939895 
O  0.080266   1.314978   -0.935644 
H  -0.629343   1.268576   -1.463968 
C  -0.051408   -0.506136   0.713158 
F  -0.104110   -1.814234   0.969576 
H  0.973346   -0.641714   -1.193251 
13 
Vibrational Frequency frame 
C  -0.016079   -0.307824   -0.810739 
O  -1.074646   -0.440282   -1.480732 
F  1.063054   -0.023448   1.294826 
F  -1.097644   0.080898   1.276548 
H  0.989022   2.916464   -1.825083 
C  1.211070   1.872724   -1.618555 
H  1.398459   1.322227   -2.541602 
H  2.056431   1.795781   -0.940362 
O  0.080385   1.314072   -0.935596 
H  -0.639703   1.250693   -1.467176 
C  -0.051325   -0.506093   0.713188 
F  -0.104127   -1.814241   0.969551 
H  0.972949   -0.642799   -1.193134 
13 
Vibrational Frequency frame 
C  -0.014740   -0.306166   -0.810146 
O  -1.075105   -0.439194   -1.481160 
F  1.063039   -0.023478   1.294837 
F  -1.097638   0.080880   1.276517 
H  0.988325   2.916093   -1.824716 
C  1.211033   1.872431   -1.618316 
H  1.398603   1.322529   -2.541775 
H  2.057140   1.796186   -0.940828 
O  0.080504   1.313167   -0.935548 
H  -0.650063   1.232809   -1.470383 
C  -0.051241   -0.506050   0.713218 
F  -0.104145   -1.814248   0.969526 
H  0.972552   -0.643884   -1.193017 
13 
Vibrational Frequency frame 
C  -0.013400   -0.304508   -0.809553 
O  -1.075564   -0.438107   -1.481588 
F  1.063024   -0.023508   1.294847 
F  -1.097632   0.080862   1.276486 
H  0.987629   2.915722   -1.824350 
C  1.210995   1.872138   -1.618078 
H  1.398748   1.322831   -2.541948 
H  2.057849   1.796591   -0.941294 
O  0.080623   1.312261   -0.935501 
H  -0.660424   1.214925   -1.473591 
C  -0.051158   -0.506007   0.713248 
F  -0.104162   -1.814254   0.969501 
H  0.972155   -0.644969   -1.192900 
13 
Vibrational Frequency frame 
C  -0.012061   -0.302850   -0.808960 
O  -1.076023   -0.437019   -1.482016 
F  1.063009   -0.023538   1.294857 
F  -1.097626   0.080844   1.276455 
H  0.986932   2.915352   -1.823983 
C  1.210957   1.871845   -1.617839 
H  1.398893   1.323134   -2.542121 
H  2.058557   1.796997   -0.941760 
O  0.080742   1.311355   -0.935453 
H  -0.670784   1.197042   -1.476799 
C  -0.051075   -0.505964   0.713277 
F  -0.104180   -1.814261   0.969477 
H  0.971758   -0.646054   -1.192783 
13 
Vibrational Frequency frame 
C  -0.010721   -0.301192   -0.808367 
O  -1.076482   -0.435931   -1.482444 
F  1.062995   -0.023568   1.294868 
F  -1.097620   0.080826   1.276424 
H  0.986235   2.914981   -1.823616 
C  1.210920   1.871552   -1.617600 
H  1.399038   1.323436   -2.542294 
H  2.059266   1.797402   -0.942227 
O  0.080860   1.310450   -0.935405 
H  -0.681144   1.179158   -1.480007 
C  -0.050991   -0.505921   0.713307 
F  -0.104198   -1.814267   0.969452 
H  0.971361   -0.647139   -1.192666 
13 
Vibrational Frequency frame 
C  -0.009381   -0.299534   -0.807774 
O  -1.076941   -0.434843   -1.482872 
F  1.062980   -0.023597   1.294878 
F  -1.097613   0.080808   1.276393 
H  0.985539   2.914610   -1.823250 
C  1.210882   1.871259   -1.617361 
H  1.399183   1.323738   -2.542467 
H  2.059975   1.797807   -0.942693 
O  0.080979   1.309544   -0.935357 
H  -0.691504   1.161274   -1.483215 
C  -0.050908   -0.505878   0.713337 
F  -0.104215   -1.814274   0.969427 
H  0.970964   -0.648224   -1.192549 
13 
Vibrational Frequency frame 
C  -0.008042   -0.297876   -0.807181 
O  -1.077400   -0.433755   -1.483301 
F  1.062965   -0.023627   1.294888 
F  -1.097607   0.080791   1.276361 
H  0.984842   2.914239   -1.822883 
C  1.210844   1.870967   -1.617123 
H  1.399328   1.324040   -2.542640 
H  2.060684   1.798212   -0.943159 
O  0.081098   1.308639   -0.935309 
H  -0.701864   1.143391   -1.486423 
C  -0.050825   -0.505835   0.713367 
F  -0.104233   -1.814281   0.969402 
H  0.970566   -0.649308   -1.192432 
13 
Vibrational Frequency frame 
C  -0.006702   -0.296218   -0.806588 
O  -1.077859   -0.432668   -1.483729 
F  1.062950   -0.023657   1.294899 
F  -1.097601   0.080773   1.276330 
H  0.984145   2.913868   -1.822516 
C  1.210806   1.870674   -1.616884 
H  1.399472   1.324342   -2.542813 
H  2.061393   1.798617   -0.943626 
O  0.081217   1.307733   -0.935262 
H  -0.712224   1.125507   -1.489631 
C  -0.050741   -0.505792   0.713397 
F  -0.104250   -1.814287   0.969377 
H  0.970169   -0.650393   -1.192315 
13 
Vibrational Frequency frame 
C  -0.005363   -0.294559   -0.805995 
O  -1.078318   -0.431580   -1.484157 
F  1.062936   -0.023687   1.294909 
F  -1.097595   0.080755   1.276299 
H  0.983449   2.913497   -1.822149 
C  1.210769   1.870381   -1.616645 
H  1.399617   1.324644   -2.542986 
H  2.062101   1.799023   -0.944092 
O  0.081336   1.306827   -0.935214 
H  -0.722584   1.107623   -1.492838 
C  -0.050658   -0.505749   0.713426 
F  -0.104268   -1.814294   0.969353 
H  0.969772   -0.651478   -1.192198 
13 
Vibrational Frequency frame 
C  -0.004023   -0.292901   -0.805402 
O  -1.078777   -0.430492   -1.484585 
F  1.062921   -0.023717   1.294920 
F  -1.097589   0.080737   1.276268 
H  0.982752   2.913126   -1.821783 
C  1.210731   1.870088   -1.616406 
H  1.399762   1.324946   -2.543159 
H  2.062810   1.799428   -0.944558 
O  0.081455   1.305922   -0.935166 
H  -0.732944   1.089740   -1.496046 
C  -0.050575   -0.505706   0.713456 
F  -0.104285   -1.814301   0.969328 
H  0.969375   -0.652563   -1.192081 
13 
Vibrational Frequency frame 
C  -0.002684   -0.291243   -0.804809 
O  -1.079236   -0.429404   -1.485013 
F  1.062906   -0.023747   1.294930 
F  -1.097583   0.080719   1.276237 
H  0.982055   2.912755   -1.821416 
C  1.210693   1.869795   -1.616168 
H  1.399907   1.325249   -2.543332 
H  2.063519   1.799833   -0.945025 
O  0.081573   1.305016   -0.935118 
H  -0.743304   1.071856   -1.499254 
C  -0.050491   -0.505663   0.713486 
F  -0.104303   -1.814307   0.969303 
H  0.968978   -0.653648   -1.191964 
13 
Vibrational Frequency frame 
C  -0.001344   -0.289585   -0.804216 
O  -1.079695   -0.428317   -1.485441 
F  1.062891   -0.023777   1.294940 
F  -1.097577   0.080701   1.276206 
H  0.981359   2.912384   -1.821049 
C  1.210656   1.869502   -1.615929 
H  1.400052   1.325551   -2.543505 
H  2.064228   1.800238   -0.945491 
O  0.081692   1.304111   -0.935070 
H  -0.753664   1.053972   -1.502462 
C  -0.050408   -0.505620   0.713516 
F  -0.104321   -1.814314   0.969278 
H  0.968581   -0.654733   -1.191847 
13 
Vibrational Frequency frame 
C  -0.000004   -0.287927   -0.803623 
O  -1.080154   -0.427229   -1.485869 
F  1.062876   -0.023807   1.294951 
F  -1.097571   0.080684   1.276174 
H  0.980662   2.912013   -1.820683 
C  1.210618   1.869209   -1.615690 
H  1.400197   1.325853   -2.543678 
H  2.064936   1.800643   -0.945957 
O  0.081811   1.303205   -0.935023 
H  -0.764024   1.036089   -1.505670 
C  -0.050325   -0.505577   0.713545 
F  -0.104338   -1.814321   0.969254 
H  0.968184   -0.655818   -1.191730 
13 
Vibrational Frequency frame 
C  0.001335   -0.286269   -0.803030 
O  -1.080613   -0.426141   -1.486297 
F  1.062862   -0.023837   1.294961 
F  -1.097564   0.080666   1.276143 
H  0.979965   2.911642   -1.820316 
C  1.210580   1.868916   -1.615451 
H  1.400341   1.326155   -2.543851 
H  2.065645   1.801049   -0.946424 
O  0.081930   1.302299   -0.934975 
H  -0.774384   1.018205   -1.508878 
C  -0.050241   -0.505534   0.713575 
F  -0.104356   -1.814327   0.969229 
H  0.967787   -0.656903   -1.191613 
13 
Vibrational Frequency frame 
C  0.002675   -0.284611   -0.802437 
O  -1.081072   -0.425053   -1.486725 
F  1.062847   -0.023867   1.294971 
F  -1.097558   0.080648   1.276112 
H  0.979269   2.911271   -1.819949 
C  1.210542   1.868623   -1.615213 
H  1.400486   1.326457   -2.544024 
H  2.066354   1.801454   -0.946890 
O  0.082049   1.301394   -0.934927 
H  -0.784744   1.000321   -1.512085 
C  -0.050158   -0.505491   0.713605 
F  -0.104373   -1.814334   0.969204 
H  0.967390   -0.657988   -1.191496 
13 
Vibrational Frequency frame 
C  0.004014   -0.282953   -0.801844 
O  -1.081531   -0.423966   -1.487153 
F  1.062832   -0.023897   1.294982 
F  -1.097552   0.080630   1.276081 
H  0.978572   2.910900   -1.819583 
C  1.210505   1.868330   -1.614974 
H  1.400631   1.326759   -2.544197 
H  2.067063   1.801859   -0.947356 
O  0.082168   1.300488   -0.934879 
H  -0.795104   0.982438   -1.515293 
C  -0.050075   -0.505448   0.713635 
F  -0.104391   -1.814341   0.969179 
H  0.966993   -0.659073   -1.191379 
13 
Vibrational Frequency frame 
C  0.005354   -0.281295   -0.801251 
O  -1.081990   -0.422878   -1.487581 
F  1.062817   -0.023927   1.294992 
F  -1.097546   0.080612   1.276050 
H  0.977875   2.910529   -1.819216 
C  1.210467   1.868037   -1.614735 
H  1.400776   1.327061   -2.544369 
H  2.067772   1.802264   -0.947822 
O  0.082287   1.299583   -0.934831 
H  -0.805464   0.964554   -1.518501 
C  -0.049991   -0.505405   0.713665 
F  -0.104408   -1.814347   0.969154 
H  0.966596   -0.660158   -1.191262 
