13 
Vibrational Frequency frame 
C  0.006694   -0.279637   -0.800658 
O  -1.082449   -0.421790   -1.488009 
F  1.062803   -0.023956   1.295002 
F  -1.097540   0.080594   1.276019 
H  0.977178   2.910158   -1.818849 
C  1.210429   1.867744   -1.614497 
H  1.400921   1.327364   -2.544542 
H  2.068480   1.802669   -0.948289 
O  0.082405   1.298677   -0.934784 
H  -0.815825   0.946670   -1.521709 
C  -0.049908   -0.505362   0.713694 
F  -0.104426   -1.814354   0.969130 
H  0.966199   -0.661243   -1.191145 
13 
Vibrational Frequency frame 
C  0.006694   -0.279637   -0.800658 
O  -1.082449   -0.421790   -1.488009 
F  1.062803   -0.023956   1.295002 
F  -1.097540   0.080594   1.276019 
H  0.977178   2.910158   -1.818849 
C  1.210429   1.867744   -1.614497 
H  1.400921   1.327364   -2.544542 
H  2.068480   1.802669   -0.948289 
O  0.082405   1.298677   -0.934784 
H  -0.815825   0.946670   -1.521709 
C  -0.049908   -0.505362   0.713694 
F  -0.104426   -1.814354   0.969130 
H  0.966199   -0.661243   -1.191145 
13 
Vibrational Frequency frame 
C  0.005656   -0.284643   -0.802271 
O  -1.084536   -0.425693   -1.489026 
F  1.062080   -0.024774   1.295618 
F  -1.096994   0.079629   1.276568 
H  0.984495   2.912431   -1.823633 
C  1.213076   1.869646   -1.615293 
H  1.400524   1.325975   -2.544141 
H  2.072805   1.803442   -0.951108 
O  0.082772   1.304113   -0.931736 
H  -0.819441   0.934122   -1.519231 
C  -0.049484   -0.504108   0.712704 
F  -0.104352   -1.811870   0.968893 
H  0.963594   -0.665851   -1.195686 
13 
Vibrational Frequency frame 
C  0.004619   -0.289648   -0.803884 
O  -1.086623   -0.429595   -1.490043 
F  1.061358   -0.025592   1.296234 
F  -1.096448   0.078663   1.277118 
H  0.991811   2.914705   -1.828418 
C  1.215722   1.871547   -1.616089 
H  1.400128   1.324586   -2.543740 
H  2.077129   1.804214   -0.953927 
O  0.083139   1.309548   -0.928688 
H  -0.823058   0.921574   -1.516754 
C  -0.049060   -0.502854   0.711714 
F  -0.104278   -1.809386   0.968656 
H  0.960988   -0.670460   -1.200227 
13 
Vibrational Frequency frame 
C  0.003581   -0.294654   -0.805498 
O  -1.088710   -0.433498   -1.491060 
F  1.060636   -0.026410   1.296850 
F  -1.095902   0.077698   1.277668 
H  0.999127   2.916978   -1.833202 
C  1.218369   1.873448   -1.616885 
H  1.399731   1.323198   -2.543339 
H  2.081453   1.804986   -0.956747 
O  0.083505   1.314984   -0.925640 
H  -0.826674   0.909025   -1.514276 
C  -0.048636   -0.501601   0.710724 
F  -0.104205   -1.806902   0.968420 
H  0.958383   -0.675068   -1.204768 
13 
Vibrational Frequency frame 
C  0.002544   -0.299659   -0.807111 
O  -1.090796   -0.437400   -1.492077 
F  1.059914   -0.027228   1.297466 
F  -1.095356   0.076732   1.278218 
H  1.006444   2.919252   -1.837986 
C  1.221015   1.875350   -1.617681 
H  1.399335   1.321809   -2.542938 
H  2.085778   1.805758   -0.959566 
O  0.083872   1.320419   -0.922592 
H  -0.830291   0.896477   -1.511799 
C  -0.048213   -0.500347   0.709734 
F  -0.104131   -1.804418   0.968183 
H  0.955777   -0.679677   -1.209309 
13 
Vibrational Frequency frame 
C  0.001507   -0.304665   -0.808724 
O  -1.092883   -0.441303   -1.493094 
F  1.059192   -0.028045   1.298081 
F  -1.094810   0.075766   1.278768 
H  1.013760   2.921525   -1.842770 
C  1.223662   1.877251   -1.618477 
H  1.398939   1.320421   -2.542536 
H  2.090102   1.806531   -0.962385 
O  0.084239   1.325855   -0.919545 
H  -0.833907   0.883928   -1.509321 
C  -0.047789   -0.499094   0.708743 
F  -0.104057   -1.801934   0.967946 
H  0.953172   -0.684285   -1.213850 
13 
Vibrational Frequency frame 
C  0.000469   -0.309671   -0.810338 
O  -1.094970   -0.445206   -1.494111 
F  1.058469   -0.028863   1.298697 
F  -1.094264   0.074801   1.279318 
H  1.021076   2.923799   -1.847554 
C  1.226308   1.879152   -1.619272 
H  1.398542   1.319032   -2.542135 
H  2.094426   1.807303   -0.965205 
O  0.084605   1.331290   -0.916497 
H  -0.837524   0.871380   -1.506843 
C  -0.047365   -0.497840   0.707753 
F  -0.103983   -1.799450   0.967709 
H  0.950566   -0.688894   -1.218391 
13 
Vibrational Frequency frame 
C  -0.000568   -0.314676   -0.811951 
O  -1.097057   -0.449108   -1.495128 
F  1.057747   -0.029681   1.299313 
F  -1.093718   0.073835   1.279868 
H  1.028393   2.926073   -1.852338 
C  1.228955   1.881054   -1.620068 
H  1.398146   1.317644   -2.541734 
H  2.098751   1.808075   -0.968024 
O  0.084972   1.336726   -0.913449 
H  -0.841141   0.858831   -1.504366 
C  -0.046941   -0.496586   0.706763 
F  -0.103909   -1.796966   0.967473 
H  0.947961   -0.693502   -1.222932 
13 
Vibrational Frequency frame 
C  -0.001605   -0.319682   -0.813564 
O  -1.099143   -0.453011   -1.496145 
F  1.057025   -0.030499   1.299929 
F  -1.093172   0.072869   1.280418 
H  1.035709   2.928346   -1.857122 
C  1.231601   1.882955   -1.620864 
H  1.397749   1.316255   -2.541333 
H  2.103075   1.808847   -0.970843 
O  0.085339   1.342161   -0.910401 
H  -0.844757   0.846283   -1.501888 
C  -0.046517   -0.495333   0.705773 
F  -0.103835   -1.794482   0.967236 
H  0.945355   -0.698111   -1.227473 
13 
Vibrational Frequency frame 
C  -0.002643   -0.324687   -0.815178 
O  -1.101230   -0.456913   -1.497162 
F  1.056303   -0.031316   1.300545 
F  -1.092626   0.071904   1.280968 
H  1.043025   2.930620   -1.861906 
C  1.234247   1.884856   -1.621660 
H  1.397353   1.314866   -2.540932 
H  2.107399   1.809619   -0.973663 
O  0.085705   1.347597   -0.907353 
H  -0.848374   0.833734   -1.499411 
C  -0.046093   -0.494079   0.704783 
F  -0.103761   -1.791998   0.966999 
H  0.942750   -0.702720   -1.232014 
13 
Vibrational Frequency frame 
C  -0.003680   -0.329693   -0.816791 
O  -1.103317   -0.460816   -1.498179 
F  1.055581   -0.032134   1.301160 
F  -1.092080   0.070938   1.281518 
H  1.050342   2.932893   -1.866691 
C  1.236894   1.886758   -1.622456 
H  1.396956   1.313478   -2.540531 
H  2.111724   1.810392   -0.976482 
O  0.086072   1.353032   -0.904306 
H  -0.851990   0.821186   -1.496933 
C  -0.045669   -0.492826   0.703792 
F  -0.103688   -1.789514   0.966763 
H  0.940144   -0.707328   -1.236555 
13 
Vibrational Frequency frame 
C  -0.004717   -0.334699   -0.818404 
O  -1.105404   -0.464718   -1.499196 
F  1.054859   -0.032952   1.301776 
F  -1.091534   0.069973   1.282068 
H  1.057658   2.935167   -1.871475 
C  1.239540   1.888659   -1.623252 
H  1.396560   1.312089   -2.540129 
H  2.116048   1.811164   -0.979301 
O  0.086439   1.358468   -0.901258 
H  -0.855607   0.808638   -1.494455 
C  -0.045246   -0.491572   0.702802 
F  -0.103614   -1.787030   0.966526 
H  0.937539   -0.711937   -1.241096 
13 
Vibrational Frequency frame 
C  -0.005755   -0.339704   -0.820018 
O  -1.107490   -0.468621   -1.500213 
F  1.054136   -0.033770   1.302392 
F  -1.090988   0.069007   1.282618 
H  1.064974   2.937440   -1.876259 
C  1.242187   1.890560   -1.624048 
H  1.396163   1.310701   -2.539728 
H  2.120372   1.811936   -0.982121 
O  0.086805   1.363903   -0.898210 
H  -0.859224   0.796089   -1.491978 
C  -0.044822   -0.490318   0.701812 
F  -0.103540   -1.784547   0.966289 
H  0.934933   -0.716545   -1.245636 
13 
Vibrational Frequency frame 
C  -0.006792   -0.344710   -0.821631 
O  -1.109577   -0.472523   -1.501230 
F  1.053414   -0.034588   1.303008 
F  -1.090442   0.068041   1.283167 
H  1.072290   2.939714   -1.881043 
C  1.244833   1.892462   -1.624844 
H  1.395767   1.309312   -2.539327 
H  2.124697   1.812708   -0.984940 
O  0.087172   1.369339   -0.895162 
H  -0.862840   0.783541   -1.489500 
C  -0.044398   -0.489065   0.700822 
F  -0.103466   -1.782063   0.966052 
H  0.932327   -0.721154   -1.250177 
13 
Vibrational Frequency frame 
C  -0.007829   -0.349715   -0.823244 
O  -1.111664   -0.476426   -1.502247 
F  1.052692   -0.035405   1.303623 
F  -1.089896   0.067076   1.283717 
H  1.079607   2.941987   -1.885827 
C  1.247480   1.894363   -1.625640 
H  1.395371   1.307924   -2.538926 
H  2.129021   1.813480   -0.987759 
O  0.087539   1.374774   -0.892114 
H  -0.866457   0.770992   -1.487023 
C  -0.043974   -0.487811   0.699831 
F  -0.103392   -1.779579   0.965816 
H  0.929722   -0.725762   -1.254718 
13 
Vibrational Frequency frame 
C  -0.008867   -0.354721   -0.824858 
O  -1.113751   -0.480329   -1.503264 
F  1.051970   -0.036223   1.304239 
F  -1.089351   0.066110   1.284267 
H  1.086923   2.944261   -1.890611 
C  1.250126   1.896264   -1.626436 
H  1.394974   1.306535   -2.538525 
H  2.133345   1.814253   -0.990579 
O  0.087905   1.380210   -0.889066 
H  -0.870073   0.758444   -1.484545 
C  -0.043550   -0.486558   0.698841 
F  -0.103318   -1.777095   0.965579 
H  0.927116   -0.730371   -1.259259 
13 
Vibrational Frequency frame 
C  -0.009904   -0.359727   -0.826471 
O  -1.115837   -0.484231   -1.504281 
F  1.051248   -0.037041   1.304855 
F  -1.088805   0.065144   1.284817 
H  1.094239   2.946535   -1.895395 
C  1.252773   1.898166   -1.627232 
H  1.394578   1.305146   -2.538123 
H  2.137670   1.815025   -0.993398 
O  0.088272   1.385646   -0.886019 
H  -0.873690   0.745895   -1.482068 
C  -0.043126   -0.485304   0.697851 
F  -0.103244   -1.774611   0.965342 
H  0.924511   -0.734979   -1.263800 
13 
Vibrational Frequency frame 
C  -0.010941   -0.364732   -0.828084 
O  -1.117924   -0.488134   -1.505298 
F  1.050526   -0.037859   1.305471 
F  -1.088259   0.064179   1.285367 
H  1.101556   2.948808   -1.900179 
C  1.255419   1.900067   -1.628028 
H  1.394181   1.303758   -2.537722 
H  2.141994   1.815797   -0.996217 
O  0.088639   1.391081   -0.882971 
H  -0.877306   0.733347   -1.479590 
C  -0.042702   -0.484050   0.696861 
F  -0.103171   -1.772127   0.965106 
H  0.921905   -0.739588   -1.268341 
13 
Vibrational Frequency frame 
C  -0.011979   -0.369738   -0.829698 
O  -1.120011   -0.492036   -1.506315 
F  1.049803   -0.038676   1.306087 
F  -1.087713   0.063213   1.285917 
H  1.108872   2.951082   -1.904964 
C  1.258066   1.901968   -1.628824 
H  1.393785   1.302369   -2.537321 
H  2.146318   1.816569   -0.999036 
O  0.089005   1.396517   -0.879923 
H  -0.880923   0.720798   -1.477112 
C  -0.042279   -0.482797   0.695871 
F  -0.103097   -1.769643   0.964869 
H  0.919300   -0.744196   -1.272882 
13 
Vibrational Frequency frame 
C  -0.013016   -0.374743   -0.831311 
O  -1.122097   -0.495939   -1.507332 
F  1.049081   -0.039494   1.306702 
F  -1.087167   0.062248   1.286467 
H  1.116188   2.953355   -1.909748 
C  1.260712   1.903870   -1.629620 
H  1.393388   1.300981   -2.536920 
H  2.150643   1.817341   -1.001856 
O  0.089372   1.401952   -0.876875 
H  -0.884540   0.708250   -1.474635 
C  -0.041855   -0.481543   0.694880 
F  -0.103023   -1.767159   0.964632 
H  0.916694   -0.748805   -1.277423 
13 
Vibrational Frequency frame 
C  -0.014054   -0.379749   -0.832924 
O  -1.124184   -0.499841   -1.508349 
F  1.048359   -0.040312   1.307318 
F  -1.086621   0.061282   1.287017 
H  1.123505   2.955629   -1.914532 
C  1.263359   1.905771   -1.630416 
H  1.392992   1.299592   -2.536519 
H  2.154967   1.818114   -1.004675 
O  0.089739   1.407388   -0.873827 
H  -0.888156   0.695702   -1.472157 
C  -0.041431   -0.480289   0.693890 
F  -0.102949   -1.764675   0.964396 
H  0.914089   -0.753413   -1.281964 
13 
Vibrational Frequency frame 
C  -0.015091   -0.384754   -0.834538 
O  -1.126271   -0.503744   -1.509365 
F  1.047637   -0.041130   1.307934 
F  -1.086075   0.060316   1.287567 
H  1.130821   2.957902   -1.919316 
C  1.266005   1.907672   -1.631212 
H  1.392595   1.298204   -2.536118 
H  2.159291   1.818886   -1.007494 
O  0.090105   1.412823   -0.870780 
H  -0.891773   0.683153   -1.469680 
C  -0.041007   -0.479036   0.692900 
F  -0.102875   -1.762191   0.964159 
H  0.911483   -0.758022   -1.286505 
13 
Vibrational Frequency frame 
C  -0.016128   -0.389760   -0.836151 
O  -1.128358   -0.507647   -1.510382 
F  1.046915   -0.041947   1.308550 
F  -1.085529   0.059351   1.288117 
H  1.138137   2.960176   -1.924100 
C  1.268652   1.909574   -1.632008 
H  1.392199   1.296815   -2.535716 
H  2.163616   1.819658   -1.010314 
O  0.090472   1.418259   -0.867732 
H  -0.895389   0.670605   -1.467202 
C  -0.040583   -0.477782   0.691910 
F  -0.102801   -1.759707   0.963922 
H  0.908878   -0.762630   -1.291046 
13 
Vibrational Frequency frame 
C  -0.017166   -0.394766   -0.837764 
O  -1.130444   -0.511549   -1.511399 
F  1.046193   -0.042765   1.309165 
F  -1.084983   0.058385   1.288667 
H  1.145453   2.962449   -1.928884 
C  1.271298   1.911475   -1.632804 
H  1.391803   1.295426   -2.535315 
H  2.167940   1.820430   -1.013133 
O  0.090839   1.423694   -0.864684 
H  -0.899006   0.658056   -1.464724 
C  -0.040159   -0.476529   0.690920 
F  -0.102727   -1.757223   0.963685 
H  0.906272   -0.767239   -1.295587 
13 
Vibrational Frequency frame 
C  -0.018203   -0.399771   -0.839378 
O  -1.132531   -0.515452   -1.512416 
F  1.045470   -0.043583   1.309781 
F  -1.084437   0.057419   1.289217 
H  1.152770   2.964723   -1.933668 
C  1.273945   1.913376   -1.633600 
H  1.391406   1.294038   -2.534914 
H  2.172264   1.821202   -1.015952 
O  0.091205   1.429130   -0.861636 
H  -0.902623   0.645508   -1.462247 
C  -0.039736   -0.475275   0.689929 
F  -0.102654   -1.754739   0.963449 
H  0.903667   -0.771847   -1.300128 
13 
Vibrational Frequency frame 
C  -0.019240   -0.404777   -0.840991 
O  -1.134618   -0.519354   -1.513433 
F  1.044748   -0.044401   1.310397 
F  -1.083891   0.056454   1.289766 
H  1.160086   2.966997   -1.938453 
C  1.276591   1.915278   -1.634396 
H  1.391010   1.292649   -2.534513 
H  2.176589   1.821975   -1.018772 
O  0.091572   1.434565   -0.858588 
H  -0.906239   0.632959   -1.459769 
C  -0.039312   -0.474021   0.688939 
F  -0.102580   -1.752255   0.963212 
H  0.901061   -0.776456   -1.304669 
13 
Vibrational Frequency frame 
C  -0.018203   -0.399771   -0.839378 
O  -1.132531   -0.515452   -1.512416 
F  1.045470   -0.043583   1.309781 
F  -1.084437   0.057419   1.289217 
H  1.152770   2.964723   -1.933668 
C  1.273945   1.913376   -1.633600 
H  1.391406   1.294038   -2.534914 
H  2.172264   1.821202   -1.015952 
O  0.091205   1.429130   -0.861636 
H  -0.902623   0.645508   -1.462247 
C  -0.039736   -0.475275   0.689929 
F  -0.102654   -1.754739   0.963449 
H  0.903667   -0.771847   -1.300128 
13 
Vibrational Frequency frame 
C  -0.017166   -0.394766   -0.837764 
O  -1.130444   -0.511549   -1.511399 
F  1.046193   -0.042765   1.309165 
F  -1.084983   0.058385   1.288667 
H  1.145453   2.962449   -1.928884 
C  1.271298   1.911475   -1.632804 
H  1.391803   1.295426   -2.535315 
H  2.167940   1.820430   -1.013133 
O  0.090839   1.423694   -0.864684 
H  -0.899006   0.658056   -1.464724 
C  -0.040159   -0.476529   0.690920 
F  -0.102727   -1.757223   0.963685 
H  0.906272   -0.767239   -1.295587 
13 
Vibrational Frequency frame 
C  -0.016128   -0.389760   -0.836151 
O  -1.128358   -0.507647   -1.510382 
F  1.046915   -0.041947   1.308550 
F  -1.085529   0.059351   1.288117 
H  1.138137   2.960176   -1.924100 
C  1.268652   1.909574   -1.632008 
H  1.392199   1.296815   -2.535716 
H  2.163616   1.819658   -1.010314 
O  0.090472   1.418259   -0.867732 
H  -0.895389   0.670605   -1.467202 
C  -0.040583   -0.477782   0.691910 
F  -0.102801   -1.759707   0.963922 
H  0.908878   -0.762630   -1.291046 
13 
Vibrational Frequency frame 
C  -0.015091   -0.384754   -0.834538 
O  -1.126271   -0.503744   -1.509365 
F  1.047637   -0.041130   1.307934 
F  -1.086075   0.060316   1.287567 
H  1.130821   2.957902   -1.919316 
C  1.266005   1.907672   -1.631212 
H  1.392595   1.298204   -2.536118 
H  2.159291   1.818886   -1.007494 
O  0.090105   1.412823   -0.870780 
H  -0.891773   0.683153   -1.469680 
C  -0.041007   -0.479036   0.692900 
F  -0.102875   -1.762191   0.964159 
H  0.911483   -0.758022   -1.286505 
13 
Vibrational Frequency frame 
C  -0.014054   -0.379749   -0.832924 
O  -1.124184   -0.499841   -1.508349 
F  1.048359   -0.040312   1.307318 
F  -1.086621   0.061282   1.287017 
H  1.123505   2.955629   -1.914532 
C  1.263359   1.905771   -1.630416 
H  1.392992   1.299592   -2.536519 
H  2.154967   1.818114   -1.004675 
O  0.089739   1.407388   -0.873827 
H  -0.888156   0.695702   -1.472157 
C  -0.041431   -0.480289   0.693890 
F  -0.102949   -1.764675   0.964396 
H  0.914089   -0.753413   -1.281964 
13 
Vibrational Frequency frame 
C  -0.013016   -0.374743   -0.831311 
O  -1.122097   -0.495939   -1.507332 
F  1.049081   -0.039494   1.306702 
F  -1.087167   0.062248   1.286467 
H  1.116188   2.953355   -1.909748 
C  1.260712   1.903870   -1.629620 
H  1.393388   1.300981   -2.536920 
H  2.150643   1.817341   -1.001856 
O  0.089372   1.401952   -0.876875 
H  -0.884540   0.708250   -1.474635 
C  -0.041855   -0.481543   0.694880 
F  -0.103023   -1.767159   0.964632 
H  0.916694   -0.748805   -1.277423 
13 
Vibrational Frequency frame 
C  -0.011979   -0.369738   -0.829698 
O  -1.120011   -0.492036   -1.506315 
F  1.049803   -0.038676   1.306087 
F  -1.087713   0.063213   1.285917 
H  1.108872   2.951082   -1.904964 
C  1.258066   1.901968   -1.628824 
H  1.393785   1.302369   -2.537321 
H  2.146318   1.816569   -0.999036 
O  0.089005   1.396517   -0.879923 
H  -0.880923   0.720798   -1.477112 
C  -0.042279   -0.482797   0.695871 
F  -0.103097   -1.769643   0.964869 
H  0.919300   -0.744196   -1.272882 
13 
Vibrational Frequency frame 
C  -0.010941   -0.364732   -0.828084 
O  -1.117924   -0.488134   -1.505298 
F  1.050526   -0.037859   1.305471 
F  -1.088259   0.064179   1.285367 
H  1.101556   2.948808   -1.900179 
C  1.255419   1.900067   -1.628028 
H  1.394181   1.303758   -2.537722 
H  2.141994   1.815797   -0.996217 
O  0.088639   1.391081   -0.882971 
H  -0.877306   0.733347   -1.479590 
C  -0.042702   -0.484050   0.696861 
F  -0.103171   -1.772127   0.965106 
H  0.921905   -0.739588   -1.268341 
13 
Vibrational Frequency frame 
C  -0.009904   -0.359727   -0.826471 
O  -1.115837   -0.484231   -1.504281 
F  1.051248   -0.037041   1.304855 
F  -1.088805   0.065144   1.284817 
H  1.094239   2.946535   -1.895395 
C  1.252773   1.898166   -1.627232 
H  1.394578   1.305146   -2.538123 
H  2.137670   1.815025   -0.993398 
O  0.088272   1.385646   -0.886019 
H  -0.873690   0.745895   -1.482068 
C  -0.043126   -0.485304   0.697851 
F  -0.103244   -1.774611   0.965342 
H  0.924511   -0.734979   -1.263800 
13 
Vibrational Frequency frame 
C  -0.008867   -0.354721   -0.824858 
O  -1.113751   -0.480329   -1.503264 
F  1.051970   -0.036223   1.304239 
F  -1.089351   0.066110   1.284267 
H  1.086923   2.944261   -1.890611 
C  1.250126   1.896264   -1.626436 
H  1.394974   1.306535   -2.538525 
H  2.133345   1.814253   -0.990579 
O  0.087905   1.380210   -0.889066 
H  -0.870073   0.758444   -1.484545 
C  -0.043550   -0.486558   0.698841 
F  -0.103318   -1.777095   0.965579 
H  0.927116   -0.730371   -1.259259 
13 
Vibrational Frequency frame 
C  -0.007829   -0.349715   -0.823244 
O  -1.111664   -0.476426   -1.502247 
F  1.052692   -0.035405   1.303623 
F  -1.089896   0.067076   1.283717 
H  1.079607   2.941987   -1.885827 
C  1.247480   1.894363   -1.625640 
H  1.395371   1.307924   -2.538926 
H  2.129021   1.813480   -0.987759 
O  0.087539   1.374774   -0.892114 
H  -0.866457   0.770992   -1.487023 
C  -0.043974   -0.487811   0.699831 
F  -0.103392   -1.779579   0.965816 
H  0.929722   -0.725762   -1.254718 
13 
Vibrational Frequency frame 
C  -0.006792   -0.344710   -0.821631 
O  -1.109577   -0.472523   -1.501230 
F  1.053414   -0.034588   1.303008 
F  -1.090442   0.068041   1.283167 
H  1.072290   2.939714   -1.881043 
C  1.244833   1.892462   -1.624844 
H  1.395767   1.309312   -2.539327 
H  2.124697   1.812708   -0.984940 
O  0.087172   1.369339   -0.895162 
H  -0.862840   0.783541   -1.489500 
C  -0.044398   -0.489065   0.700822 
F  -0.103466   -1.782063   0.966052 
H  0.932327   -0.721154   -1.250177 
13 
Vibrational Frequency frame 
C  -0.005755   -0.339704   -0.820018 
O  -1.107490   -0.468621   -1.500213 
F  1.054136   -0.033770   1.302392 
F  -1.090988   0.069007   1.282618 
H  1.064974   2.937440   -1.876259 
C  1.242187   1.890560   -1.624048 
H  1.396163   1.310701   -2.539728 
H  2.120372   1.811936   -0.982121 
O  0.086805   1.363903   -0.898210 
H  -0.859224   0.796089   -1.491978 
C  -0.044822   -0.490318   0.701812 
F  -0.103540   -1.784547   0.966289 
H  0.934933   -0.716545   -1.245636 
13 
Vibrational Frequency frame 
C  -0.004717   -0.334699   -0.818404 
O  -1.105404   -0.464718   -1.499196 
F  1.054859   -0.032952   1.301776 
F  -1.091534   0.069973   1.282068 
H  1.057658   2.935167   -1.871475 
C  1.239540   1.888659   -1.623252 
H  1.396560   1.312089   -2.540129 
H  2.116048   1.811164   -0.979301 
O  0.086439   1.358468   -0.901258 
H  -0.855607   0.808638   -1.494455 
C  -0.045246   -0.491572   0.702802 
F  -0.103614   -1.787030   0.966526 
H  0.937539   -0.711937   -1.241096 
13 
Vibrational Frequency frame 
C  -0.003680   -0.329693   -0.816791 
O  -1.103317   -0.460816   -1.498179 
F  1.055581   -0.032134   1.301160 
F  -1.092080   0.070938   1.281518 
H  1.050342   2.932893   -1.866691 
C  1.236894   1.886758   -1.622456 
H  1.396956   1.313478   -2.540531 
H  2.111724   1.810392   -0.976482 
O  0.086072   1.353032   -0.904306 
H  -0.851990   0.821186   -1.496933 
C  -0.045669   -0.492826   0.703792 
F  -0.103688   -1.789514   0.966763 
H  0.940144   -0.707328   -1.236555 
13 
Vibrational Frequency frame 
C  -0.002643   -0.324687   -0.815178 
O  -1.101230   -0.456913   -1.497162 
F  1.056303   -0.031316   1.300545 
F  -1.092626   0.071904   1.280968 
H  1.043025   2.930620   -1.861906 
C  1.234247   1.884856   -1.621660 
H  1.397353   1.314866   -2.540932 
H  2.107399   1.809619   -0.973663 
O  0.085705   1.347597   -0.907353 
H  -0.848374   0.833734   -1.499411 
C  -0.046093   -0.494079   0.704783 
F  -0.103761   -1.791998   0.966999 
H  0.942750   -0.702720   -1.232014 
13 
Vibrational Frequency frame 
C  -0.001605   -0.319682   -0.813564 
O  -1.099143   -0.453011   -1.496145 
F  1.057025   -0.030499   1.299929 
F  -1.093172   0.072869   1.280418 
H  1.035709   2.928346   -1.857122 
C  1.231601   1.882955   -1.620864 
H  1.397749   1.316255   -2.541333 
H  2.103075   1.808847   -0.970843 
O  0.085339   1.342161   -0.910401 
H  -0.844757   0.846283   -1.501888 
C  -0.046517   -0.495333   0.705773 
F  -0.103835   -1.794482   0.967236 
H  0.945355   -0.698111   -1.227473 
13 
Vibrational Frequency frame 
C  -0.000568   -0.314676   -0.811951 
O  -1.097057   -0.449108   -1.495128 
F  1.057747   -0.029681   1.299313 
F  -1.093718   0.073835   1.279868 
H  1.028393   2.926073   -1.852338 
C  1.228955   1.881054   -1.620068 
H  1.398146   1.317644   -2.541734 
H  2.098751   1.808075   -0.968024 
O  0.084972   1.336726   -0.913449 
H  -0.841141   0.858831   -1.504366 
C  -0.046941   -0.496586   0.706763 
F  -0.103909   -1.796966   0.967473 
H  0.947961   -0.693502   -1.222932 
13 
Vibrational Frequency frame 
C  0.000469   -0.309671   -0.810338 
O  -1.094970   -0.445206   -1.494111 
F  1.058469   -0.028863   1.298697 
F  -1.094264   0.074801   1.279318 
H  1.021076   2.923799   -1.847554 
C  1.226308   1.879152   -1.619272 
H  1.398542   1.319032   -2.542135 
H  2.094426   1.807303   -0.965205 
O  0.084605   1.331290   -0.916497 
H  -0.837524   0.871380   -1.506843 
C  -0.047365   -0.497840   0.707753 
F  -0.103983   -1.799450   0.967709 
H  0.950566   -0.688894   -1.218391 
13 
Vibrational Frequency frame 
C  0.001507   -0.304665   -0.808724 
O  -1.092883   -0.441303   -1.493094 
F  1.059192   -0.028045   1.298081 
F  -1.094810   0.075766   1.278768 
H  1.013760   2.921525   -1.842770 
C  1.223662   1.877251   -1.618477 
H  1.398939   1.320421   -2.542536 
H  2.090102   1.806531   -0.962385 
O  0.084239   1.325855   -0.919545 
H  -0.833907   0.883928   -1.509321 
C  -0.047789   -0.499094   0.708743 
F  -0.104057   -1.801934   0.967946 
H  0.953172   -0.684285   -1.213850 
13 
Vibrational Frequency frame 
C  0.002544   -0.299659   -0.807111 
O  -1.090796   -0.437400   -1.492077 
F  1.059914   -0.027228   1.297466 
F  -1.095356   0.076732   1.278218 
H  1.006444   2.919252   -1.837986 
C  1.221015   1.875350   -1.617681 
H  1.399335   1.321809   -2.542938 
H  2.085778   1.805758   -0.959566 
O  0.083872   1.320419   -0.922592 
H  -0.830291   0.896477   -1.511799 
C  -0.048213   -0.500347   0.709734 
F  -0.104131   -1.804418   0.968183 
H  0.955777   -0.679677   -1.209309 
13 
Vibrational Frequency frame 
C  0.003581   -0.294654   -0.805498 
O  -1.088710   -0.433498   -1.491060 
F  1.060636   -0.026410   1.296850 
F  -1.095902   0.077698   1.277668 
H  0.999127   2.916978   -1.833202 
C  1.218369   1.873448   -1.616885 
H  1.399731   1.323198   -2.543339 
H  2.081453   1.804986   -0.956747 
O  0.083505   1.314984   -0.925640 
H  -0.826674   0.909025   -1.514276 
C  -0.048636   -0.501601   0.710724 
F  -0.104205   -1.806902   0.968420 
H  0.958383   -0.675068   -1.204768 
13 
Vibrational Frequency frame 
C  0.004619   -0.289648   -0.803884 
O  -1.086623   -0.429595   -1.490043 
F  1.061358   -0.025592   1.296234 
F  -1.096448   0.078663   1.277118 
H  0.991811   2.914705   -1.828418 
C  1.215722   1.871547   -1.616089 
H  1.400128   1.324586   -2.543740 
H  2.077129   1.804214   -0.953927 
O  0.083139   1.309548   -0.928688 
H  -0.823058   0.921574   -1.516754 
C  -0.049060   -0.502854   0.711714 
F  -0.104278   -1.809386   0.968656 
H  0.960988   -0.670460   -1.200227 
13 
Vibrational Frequency frame 
C  0.005656   -0.284643   -0.802271 
O  -1.084536   -0.425693   -1.489026 
F  1.062080   -0.024774   1.295618 
F  -1.096994   0.079629   1.276568 
H  0.984495   2.912431   -1.823633 
C  1.213076   1.869646   -1.615293 
H  1.400524   1.325975   -2.544141 
H  2.072805   1.803442   -0.951108 
O  0.082772   1.304113   -0.931736 
H  -0.819441   0.934122   -1.519231 
C  -0.049484   -0.504108   0.712704 
F  -0.104352   -1.811870   0.968893 
H  0.963594   -0.665851   -1.195686 
