13 
Vibrational Frequency frame 
C  0.006694   -0.279637   -0.800658 
O  -1.082449   -0.421790   -1.488009 
F  1.062803   -0.023956   1.295002 
F  -1.097540   0.080594   1.276019 
H  0.977178   2.910158   -1.818849 
C  1.210429   1.867744   -1.614497 
H  1.400921   1.327364   -2.544542 
H  2.068480   1.802669   -0.948289 
O  0.082405   1.298677   -0.934784 
H  -0.815825   0.946670   -1.521709 
C  -0.049908   -0.505362   0.713694 
F  -0.104426   -1.814354   0.969130 
H  0.966199   -0.661243   -1.191145 
13 
Vibrational Frequency frame 
C  0.006694   -0.279637   -0.800658 
O  -1.082449   -0.421790   -1.488009 
F  1.062803   -0.023956   1.295002 
F  -1.097540   0.080594   1.276019 
H  0.977178   2.910158   -1.818849 
C  1.210429   1.867744   -1.614497 
H  1.400921   1.327364   -2.544542 
H  2.068480   1.802669   -0.948289 
O  0.082405   1.298677   -0.934784 
H  -0.815825   0.946670   -1.521709 
C  -0.049908   -0.505362   0.713694 
F  -0.104426   -1.814354   0.969130 
H  0.966199   -0.661243   -1.191145 
13 
Vibrational Frequency frame 
C  0.006397   -0.277858   -0.804070 
O  -1.084056   -0.421448   -1.490497 
F  1.070672   -0.025143   1.298469 
F  -1.101346   0.072971   1.275640 
H  0.971818   2.908279   -1.816476 
C  1.209065   1.866553   -1.613599 
H  1.400774   1.327343   -2.543978 
H  2.066860   1.803414   -0.946994 
O  0.083043   1.294078   -0.934584 
H  -0.816400   0.953809   -1.519422 
C  -0.046566   -0.500287   0.713298 
F  -0.108221   -1.805746   0.969678 
H  0.964201   -0.663280   -1.195248 
13 
Vibrational Frequency frame 
C  0.006101   -0.276080   -0.807483 
O  -1.085663   -0.421105   -1.492985 
F  1.078542   -0.026329   1.301936 
F  -1.105152   0.065347   1.275261 
H  0.966458   2.906400   -1.814103 
C  1.207701   1.865362   -1.612701 
H  1.400627   1.327322   -2.543413 
H  2.065240   1.804158   -0.945699 
O  0.083680   1.289479   -0.934384 
H  -0.816976   0.960947   -1.517135 
C  -0.043225   -0.495213   0.712902 
F  -0.112017   -1.797138   0.970227 
H  0.962204   -0.665317   -1.199350 
13 
Vibrational Frequency frame 
C  0.005805   -0.274301   -0.810896 
O  -1.087269   -0.420763   -1.495472 
F  1.086412   -0.027515   1.305403 
F  -1.108958   0.057723   1.274882 
H  0.961097   2.904521   -1.811730 
C  1.206337   1.864171   -1.611803 
H  1.400479   1.327301   -2.542849 
H  2.063620   1.804902   -0.944404 
O  0.084318   1.284880   -0.934184 
H  -0.817552   0.968085   -1.514849 
C  -0.039883   -0.490138   0.712506 
F  -0.115812   -1.788529   0.970775 
H  0.960206   -0.667355   -1.203453 
13 
Vibrational Frequency frame 
C  0.005508   -0.272522   -0.814309 
O  -1.088876   -0.420421   -1.497960 
F  1.094282   -0.028701   1.308870 
F  -1.112763   0.050099   1.274503 
H  0.955737   2.902643   -1.809356 
C  1.204973   1.862980   -1.610905 
H  1.400332   1.327280   -2.542284 
H  2.062000   1.805647   -0.943109 
O  0.084955   1.280281   -0.933984 
H  -0.818128   0.975224   -1.512562 
C  -0.036542   -0.485064   0.712111 
F  -0.119607   -1.779921   0.971324 
H  0.958208   -0.669392   -1.207556 
13 
Vibrational Frequency frame 
C  0.005212   -0.270743   -0.817721 
O  -1.090482   -0.420078   -1.500447 
F  1.102152   -0.029888   1.312337 
F  -1.116569   0.042475   1.274124 
H  0.950377   2.900764   -1.806983 
C  1.203609   1.861789   -1.610007 
H  1.400185   1.327259   -2.541719 
H  2.060380   1.806391   -0.941814 
O  0.085593   1.275682   -0.933785 
H  -0.818704   0.982362   -1.510275 
C  -0.033200   -0.479989   0.711715 
F  -0.123403   -1.771313   0.971872 
H  0.956210   -0.671429   -1.211658 
13 
Vibrational Frequency frame 
C  0.004915   -0.268964   -0.821134 
O  -1.092089   -0.419736   -1.502935 
F  1.110022   -0.031074   1.315804 
F  -1.120375   0.034851   1.273745 
H  0.945016   2.898885   -1.804610 
C  1.202245   1.860598   -1.609109 
H  1.400038   1.327238   -2.541155 
H  2.058759   1.807135   -0.940519 
O  0.086230   1.271082   -0.933585 
H  -0.819280   0.989500   -1.507988 
C  -0.029859   -0.474915   0.711319 
F  -0.127198   -1.762705   0.972421 
H  0.954212   -0.673467   -1.215761 
13 
Vibrational Frequency frame 
C  0.004619   -0.267186   -0.824547 
O  -1.093696   -0.419394   -1.505422 
F  1.117892   -0.032260   1.319271 
F  -1.124181   0.027227   1.273366 
H  0.939656   2.897006   -1.802237 
C  1.200881   1.859407   -1.608211 
H  1.399891   1.327217   -2.540590 
H  2.057139   1.807880   -0.939224 
O  0.086868   1.266483   -0.933385 
H  -0.819856   0.996639   -1.505702 
C  -0.026517   -0.469840   0.710923 
F  -0.130994   -1.754097   0.972969 
H  0.952214   -0.675504   -1.219864 
13 
Vibrational Frequency frame 
C  0.004323   -0.265407   -0.827960 
O  -1.095302   -0.419051   -1.507910 
F  1.125762   -0.033446   1.322738 
F  -1.127987   0.019603   1.272987 
H  0.934295   2.895128   -1.799864 
C  1.199516   1.858216   -1.607313 
H  1.399744   1.327196   -2.540025 
H  2.055519   1.808624   -0.937929 
O  0.087505   1.261884   -0.933185 
H  -0.820432   1.003777   -1.503415 
C  -0.023176   -0.464765   0.710527 
F  -0.134789   -1.745489   0.973518 
H  0.950216   -0.677542   -1.223966 
13 
Vibrational Frequency frame 
C  0.004026   -0.263628   -0.831372 
O  -1.096909   -0.418709   -1.510398 
F  1.133632   -0.034633   1.326205 
F  -1.131793   0.011979   1.272608 
H  0.928935   2.893249   -1.797491 
C  1.198152   1.857025   -1.606415 
H  1.399597   1.327175   -2.539461 
H  2.053899   1.809368   -0.936634 
O  0.088143   1.257285   -0.932986 
H  -0.821008   1.010915   -1.501128 
C  -0.019834   -0.459691   0.710131 
F  -0.138584   -1.736881   0.974066 
H  0.948219   -0.679579   -1.228069 
13 
Vibrational Frequency frame 
C  0.003730   -0.261849   -0.834785 
O  -1.098515   -0.418367   -1.512885 
F  1.141502   -0.035819   1.329672 
F  -1.135599   0.004355   1.272229 
H  0.923575   2.891370   -1.795117 
C  1.196788   1.855834   -1.605517 
H  1.399450   1.327154   -2.538896 
H  2.052279   1.810112   -0.935339 
O  0.088781   1.252686   -0.932786 
H  -0.821584   1.018054   -1.498841 
C  -0.016493   -0.454616   0.709735 
F  -0.142380   -1.728273   0.974614 
H  0.946221   -0.681616   -1.232171 
13 
Vibrational Frequency frame 
C  0.003434   -0.260070   -0.838198 
O  -1.100122   -0.418024   -1.515373 
F  1.149372   -0.037005   1.333139 
F  -1.139405   -0.003269   1.271850 
H  0.918214   2.889491   -1.792744 
C  1.195424   1.854643   -1.604619 
H  1.399303   1.327133   -2.538331 
H  2.050659   1.810857   -0.934044 
O  0.089418   1.248087   -0.932586 
H  -0.822160   1.025192   -1.496555 
C  -0.013151   -0.449542   0.709339 
F  -0.146175   -1.719664   0.975163 
H  0.944223   -0.683654   -1.236274 
13 
Vibrational Frequency frame 
C  0.003137   -0.258292   -0.841611 
O  -1.101729   -0.417682   -1.517860 
F  1.157242   -0.038191   1.336605 
F  -1.143211   -0.010893   1.271471 
H  0.912854   2.887613   -1.790371 
C  1.194060   1.853452   -1.603722 
H  1.399155   1.327112   -2.537767 
H  2.049038   1.811601   -0.932749 
O  0.090056   1.243488   -0.932386 
H  -0.822736   1.032330   -1.494268 
C  -0.009810   -0.444467   0.708943 
F  -0.149970   -1.711056   0.975711 
H  0.942225   -0.685691   -1.240377 
13 
Vibrational Frequency frame 
C  0.002841   -0.256513   -0.845023 
O  -1.103335   -0.417339   -1.520348 
F  1.165112   -0.039377   1.340072 
F  -1.147016   -0.018516   1.271092 
H  0.907493   2.885734   -1.787998 
C  1.192696   1.852261   -1.602824 
H  1.399008   1.327091   -2.537202 
H  2.047418   1.812345   -0.931454 
O  0.090693   1.238889   -0.932186 
H  -0.823312   1.039469   -1.491981 
C  -0.006468   -0.439393   0.708547 
F  -0.153766   -1.702448   0.976260 
H  0.940227   -0.687728   -1.244479 
13 
Vibrational Frequency frame 
C  0.002545   -0.254734   -0.848436 
O  -1.104942   -0.416997   -1.522835 
F  1.172981   -0.040564   1.343539 
F  -1.150822   -0.026140   1.270713 
H  0.902133   2.883855   -1.785625 
C  1.191332   1.851070   -1.601926 
H  1.398861   1.327070   -2.536638 
H  2.045798   1.813090   -0.930159 
O  0.091331   1.234290   -0.931987 
H  -0.823888   1.046607   -1.489694 
C  -0.003127   -0.434318   0.708151 
F  -0.157561   -1.693840   0.976808 
H  0.938229   -0.689766   -1.248582 
13 
Vibrational Frequency frame 
C  0.002248   -0.252955   -0.851849 
O  -1.106548   -0.416655   -1.525323 
F  1.180851   -0.041750   1.347006 
F  -1.154628   -0.033764   1.270334 
H  0.896773   2.881976   -1.783251 
C  1.189968   1.849879   -1.601028 
H  1.398714   1.327049   -2.536073 
H  2.044178   1.813834   -0.928864 
O  0.091968   1.229691   -0.931787 
H  -0.824464   1.053745   -1.487408 
C  0.000215   -0.429244   0.707755 
F  -0.161356   -1.685232   0.977357 
H  0.936231   -0.691803   -1.252684 
13 
Vibrational Frequency frame 
C  0.001952   -0.251176   -0.855262 
O  -1.108155   -0.416312   -1.527811 
F  1.188721   -0.042936   1.350473 
F  -1.158434   -0.041388   1.269956 
H  0.891412   2.880098   -1.780878 
C  1.188604   1.848688   -1.600130 
H  1.398567   1.327028   -2.535508 
H  2.042558   1.814578   -0.927569 
O  0.092606   1.225091   -0.931587 
H  -0.825040   1.060884   -1.485121 
C  0.003556   -0.424169   0.707359 
F  -0.165152   -1.676624   0.977905 
H  0.934234   -0.693840   -1.256787 
13 
Vibrational Frequency frame 
C  0.001656   -0.249398   -0.858674 
O  -1.109761   -0.415970   -1.530298 
F  1.196591   -0.044122   1.353940 
F  -1.162240   -0.049012   1.269577 
H  0.886052   2.878219   -1.778505 
C  1.187240   1.847497   -1.599232 
H  1.398420   1.327007   -2.534944 
H  2.040938   1.815323   -0.926274 
O  0.093243   1.220492   -0.931387 
H  -0.825616   1.068022   -1.482834 
C  0.006898   -0.419095   0.706963 
F  -0.168947   -1.668016   0.978454 
H  0.932236   -0.695878   -1.260890 
13 
Vibrational Frequency frame 
C  0.001359   -0.247619   -0.862087 
O  -1.111368   -0.415628   -1.532786 
F  1.204461   -0.045309   1.357407 
F  -1.166046   -0.056636   1.269198 
H  0.880691   2.876340   -1.776132 
C  1.185876   1.846306   -1.598334 
H  1.398273   1.326986   -2.534379 
H  2.039317   1.816067   -0.924979 
O  0.093881   1.215893   -0.931187 
H  -0.826191   1.075160   -1.480547 
C  0.010240   -0.414020   0.706567 
F  -0.172742   -1.659408   0.979002 
H  0.930238   -0.697915   -1.264992 
13 
Vibrational Frequency frame 
C  0.001063   -0.245840   -0.865500 
O  -1.112975   -0.415285   -1.535273 
F  1.212331   -0.046495   1.360874 
F  -1.169852   -0.064260   1.268819 
H  0.875331   2.874461   -1.773759 
C  1.184511   1.845115   -1.597436 
H  1.398126   1.326965   -2.533814 
H  2.037697   1.816811   -0.923684 
O  0.094518   1.211294   -0.930988 
H  -0.826767   1.082299   -1.478260 
C  0.013581   -0.408946   0.706171 
F  -0.176538   -1.650799   0.979551 
H  0.928240   -0.699952   -1.269095 
13 
Vibrational Frequency frame 
C  0.000767   -0.244061   -0.868913 
O  -1.114581   -0.414943   -1.537761 
F  1.220201   -0.047681   1.364341 
F  -1.173658   -0.071884   1.268440 
H  0.869971   2.872583   -1.771385 
C  1.183147   1.843924   -1.596538 
H  1.397979   1.326944   -2.533250 
H  2.036077   1.817556   -0.922389 
O  0.095156   1.206695   -0.930788 
H  -0.827343   1.089437   -1.475974 
C  0.016923   -0.403871   0.705775 
F  -0.180333   -1.642191   0.980099 
H  0.926242   -0.701990   -1.273198 
13 
Vibrational Frequency frame 
C  0.000470   -0.242282   -0.872326 
O  -1.116188   -0.414601   -1.540248 
F  1.228071   -0.048867   1.367808 
F  -1.177464   -0.079508   1.268061 
H  0.864610   2.870704   -1.769012 
C  1.181783   1.842733   -1.595640 
H  1.397832   1.326923   -2.532685 
H  2.034457   1.818300   -0.921094 
O  0.095793   1.202096   -0.930588 
H  -0.827919   1.096575   -1.473687 
C  0.020264   -0.398797   0.705379 
F  -0.184128   -1.633583   0.980648 
H  0.924244   -0.704027   -1.277300 
13 
Vibrational Frequency frame 
C  0.000174   -0.240504   -0.875738 
O  -1.117794   -0.414258   -1.542736 
F  1.235941   -0.050053   1.371275 
F  -1.181270   -0.087132   1.267682 
H  0.859250   2.868825   -1.766639 
C  1.180419   1.841542   -1.594742 
H  1.397684   1.326902   -2.532120 
H  2.032837   1.819044   -0.919799 
O  0.096431   1.197497   -0.930388 
H  -0.828495   1.103714   -1.471400 
C  0.023606   -0.393722   0.704983 
F  -0.187924   -1.624975   0.981196 
H  0.922246   -0.706064   -1.281403 
13 
Vibrational Frequency frame 
C  -0.000122   -0.238725   -0.879151 
O  -1.119401   -0.413916   -1.545224 
F  1.243811   -0.051240   1.374742 
F  -1.185075   -0.094756   1.267303 
H  0.853889   2.866946   -1.764266 
C  1.179055   1.840351   -1.593844 
H  1.397537   1.326881   -2.531556 
H  2.031217   1.819788   -0.918504 
O  0.097068   1.192898   -0.930188 
H  -0.829071   1.110852   -1.469113 
C  0.026947   -0.388648   0.704587 
F  -0.191719   -1.616367   0.981745 
H  0.920249   -0.708102   -1.285505 
13 
Vibrational Frequency frame 
C  -0.000419   -0.236946   -0.882564 
O  -1.121008   -0.413574   -1.547711 
F  1.251681   -0.052426   1.378208 
F  -1.188881   -0.102380   1.266924 
H  0.848529   2.865068   -1.761893 
C  1.177691   1.839160   -1.592947 
H  1.397390   1.326860   -2.530991 
H  2.029596   1.820533   -0.917209 
O  0.097706   1.188299   -0.929989 
H  -0.829647   1.117990   -1.466827 
C  0.030289   -0.383573   0.704191 
F  -0.195515   -1.607759   0.982293 
H  0.918251   -0.710139   -1.289608 
13 
Vibrational Frequency frame 
C  -0.000715   -0.235167   -0.885977 
O  -1.122614   -0.413231   -1.550199 
F  1.259551   -0.053612   1.381675 
F  -1.192687   -0.110003   1.266545 
H  0.843169   2.863189   -1.759520 
C  1.176327   1.837969   -1.592049 
H  1.397243   1.326839   -2.530427 
H  2.027976   1.821277   -0.915915 
O  0.098343   1.183700   -0.929789 
H  -0.830223   1.125129   -1.464540 
C  0.033630   -0.378498   0.703795 
F  -0.199310   -1.599151   0.982842 
H  0.916253   -0.712176   -1.293711 
13 
Vibrational Frequency frame 
C  -0.000419   -0.236946   -0.882564 
O  -1.121008   -0.413574   -1.547711 
F  1.251681   -0.052426   1.378208 
F  -1.188881   -0.102380   1.266924 
H  0.848529   2.865068   -1.761893 
C  1.177691   1.839160   -1.592947 
H  1.397390   1.326860   -2.530991 
H  2.029596   1.820533   -0.917209 
O  0.097706   1.188299   -0.929989 
H  -0.829647   1.117990   -1.466827 
C  0.030289   -0.383573   0.704191 
F  -0.195515   -1.607759   0.982293 
H  0.918251   -0.710139   -1.289608 
13 
Vibrational Frequency frame 
C  -0.000122   -0.238725   -0.879151 
O  -1.119401   -0.413916   -1.545224 
F  1.243811   -0.051240   1.374742 
F  -1.185075   -0.094756   1.267303 
H  0.853889   2.866946   -1.764266 
C  1.179055   1.840351   -1.593844 
H  1.397537   1.326881   -2.531556 
H  2.031217   1.819788   -0.918504 
O  0.097068   1.192898   -0.930188 
H  -0.829071   1.110852   -1.469113 
C  0.026947   -0.388648   0.704587 
F  -0.191719   -1.616367   0.981745 
H  0.920249   -0.708102   -1.285505 
13 
Vibrational Frequency frame 
C  0.000174   -0.240504   -0.875738 
O  -1.117794   -0.414258   -1.542736 
F  1.235941   -0.050053   1.371275 
F  -1.181270   -0.087132   1.267682 
H  0.859250   2.868825   -1.766639 
C  1.180419   1.841542   -1.594742 
H  1.397684   1.326902   -2.532120 
H  2.032837   1.819044   -0.919799 
O  0.096431   1.197497   -0.930388 
H  -0.828495   1.103714   -1.471400 
C  0.023606   -0.393722   0.704983 
F  -0.187924   -1.624975   0.981196 
H  0.922246   -0.706064   -1.281403 
13 
Vibrational Frequency frame 
C  0.000470   -0.242282   -0.872326 
O  -1.116188   -0.414601   -1.540248 
F  1.228071   -0.048867   1.367808 
F  -1.177464   -0.079508   1.268061 
H  0.864610   2.870704   -1.769012 
C  1.181783   1.842733   -1.595640 
H  1.397832   1.326923   -2.532685 
H  2.034457   1.818300   -0.921094 
O  0.095793   1.202096   -0.930588 
H  -0.827919   1.096575   -1.473687 
C  0.020264   -0.398797   0.705379 
F  -0.184128   -1.633583   0.980648 
H  0.924244   -0.704027   -1.277300 
13 
Vibrational Frequency frame 
C  0.000767   -0.244061   -0.868913 
O  -1.114581   -0.414943   -1.537761 
F  1.220201   -0.047681   1.364341 
F  -1.173658   -0.071884   1.268440 
H  0.869971   2.872583   -1.771385 
C  1.183147   1.843924   -1.596538 
H  1.397979   1.326944   -2.533250 
H  2.036077   1.817556   -0.922389 
O  0.095156   1.206695   -0.930788 
H  -0.827343   1.089437   -1.475974 
C  0.016923   -0.403871   0.705775 
F  -0.180333   -1.642191   0.980099 
H  0.926242   -0.701990   -1.273198 
13 
Vibrational Frequency frame 
C  0.001063   -0.245840   -0.865500 
O  -1.112975   -0.415285   -1.535273 
F  1.212331   -0.046495   1.360874 
F  -1.169852   -0.064260   1.268819 
H  0.875331   2.874461   -1.773759 
C  1.184511   1.845115   -1.597436 
H  1.398126   1.326965   -2.533814 
H  2.037697   1.816811   -0.923684 
O  0.094518   1.211294   -0.930988 
H  -0.826767   1.082299   -1.478260 
C  0.013581   -0.408946   0.706171 
F  -0.176538   -1.650799   0.979551 
H  0.928240   -0.699952   -1.269095 
13 
Vibrational Frequency frame 
C  0.001359   -0.247619   -0.862087 
O  -1.111368   -0.415628   -1.532786 
F  1.204461   -0.045309   1.357407 
F  -1.166046   -0.056636   1.269198 
H  0.880691   2.876340   -1.776132 
C  1.185876   1.846306   -1.598334 
H  1.398273   1.326986   -2.534379 
H  2.039317   1.816067   -0.924979 
O  0.093881   1.215893   -0.931187 
H  -0.826191   1.075160   -1.480547 
C  0.010240   -0.414020   0.706567 
F  -0.172742   -1.659408   0.979002 
H  0.930238   -0.697915   -1.264992 
13 
Vibrational Frequency frame 
C  0.001656   -0.249398   -0.858674 
O  -1.109761   -0.415970   -1.530298 
F  1.196591   -0.044122   1.353940 
F  -1.162240   -0.049012   1.269577 
H  0.886052   2.878219   -1.778505 
C  1.187240   1.847497   -1.599232 
H  1.398420   1.327007   -2.534944 
H  2.040938   1.815323   -0.926274 
O  0.093243   1.220492   -0.931387 
H  -0.825616   1.068022   -1.482834 
C  0.006898   -0.419095   0.706963 
F  -0.168947   -1.668016   0.978454 
H  0.932236   -0.695878   -1.260890 
13 
Vibrational Frequency frame 
C  0.001952   -0.251176   -0.855262 
O  -1.108155   -0.416312   -1.527811 
F  1.188721   -0.042936   1.350473 
F  -1.158434   -0.041388   1.269956 
H  0.891412   2.880098   -1.780878 
C  1.188604   1.848688   -1.600130 
H  1.398567   1.327028   -2.535508 
H  2.042558   1.814578   -0.927569 
O  0.092606   1.225091   -0.931587 
H  -0.825040   1.060884   -1.485121 
C  0.003556   -0.424169   0.707359 
F  -0.165152   -1.676624   0.977905 
H  0.934234   -0.693840   -1.256787 
13 
Vibrational Frequency frame 
C  0.002248   -0.252955   -0.851849 
O  -1.106548   -0.416655   -1.525323 
F  1.180851   -0.041750   1.347006 
F  -1.154628   -0.033764   1.270334 
H  0.896773   2.881976   -1.783251 
C  1.189968   1.849879   -1.601028 
H  1.398714   1.327049   -2.536073 
H  2.044178   1.813834   -0.928864 
O  0.091968   1.229691   -0.931787 
H  -0.824464   1.053745   -1.487408 
C  0.000215   -0.429244   0.707755 
F  -0.161356   -1.685232   0.977357 
H  0.936231   -0.691803   -1.252684 
13 
Vibrational Frequency frame 
C  0.002545   -0.254734   -0.848436 
O  -1.104942   -0.416997   -1.522835 
F  1.172981   -0.040564   1.343539 
F  -1.150822   -0.026140   1.270713 
H  0.902133   2.883855   -1.785625 
C  1.191332   1.851070   -1.601926 
H  1.398861   1.327070   -2.536638 
H  2.045798   1.813090   -0.930159 
O  0.091331   1.234290   -0.931987 
H  -0.823888   1.046607   -1.489694 
C  -0.003127   -0.434318   0.708151 
F  -0.157561   -1.693840   0.976808 
H  0.938229   -0.689766   -1.248582 
13 
Vibrational Frequency frame 
C  0.002841   -0.256513   -0.845023 
O  -1.103335   -0.417339   -1.520348 
F  1.165112   -0.039377   1.340072 
F  -1.147016   -0.018516   1.271092 
H  0.907493   2.885734   -1.787998 
C  1.192696   1.852261   -1.602824 
H  1.399008   1.327091   -2.537202 
H  2.047418   1.812345   -0.931454 
O  0.090693   1.238889   -0.932186 
H  -0.823312   1.039469   -1.491981 
C  -0.006468   -0.439393   0.708547 
F  -0.153766   -1.702448   0.976260 
H  0.940227   -0.687728   -1.244479 
13 
Vibrational Frequency frame 
C  0.003137   -0.258292   -0.841611 
O  -1.101729   -0.417682   -1.517860 
F  1.157242   -0.038191   1.336605 
F  -1.143211   -0.010893   1.271471 
H  0.912854   2.887613   -1.790371 
C  1.194060   1.853452   -1.603722 
H  1.399155   1.327112   -2.537767 
H  2.049038   1.811601   -0.932749 
O  0.090056   1.243488   -0.932386 
H  -0.822736   1.032330   -1.494268 
C  -0.009810   -0.444467   0.708943 
F  -0.149970   -1.711056   0.975711 
H  0.942225   -0.685691   -1.240377 
13 
Vibrational Frequency frame 
C  0.003434   -0.260070   -0.838198 
O  -1.100122   -0.418024   -1.515373 
F  1.149372   -0.037005   1.333139 
F  -1.139405   -0.003269   1.271850 
H  0.918214   2.889491   -1.792744 
C  1.195424   1.854643   -1.604619 
H  1.399303   1.327133   -2.538331 
H  2.050659   1.810857   -0.934044 
O  0.089418   1.248087   -0.932586 
H  -0.822160   1.025192   -1.496555 
C  -0.013151   -0.449542   0.709339 
F  -0.146175   -1.719664   0.975163 
H  0.944223   -0.683654   -1.236274 
13 
Vibrational Frequency frame 
C  0.003730   -0.261849   -0.834785 
O  -1.098515   -0.418367   -1.512885 
F  1.141502   -0.035819   1.329672 
F  -1.135599   0.004355   1.272229 
H  0.923575   2.891370   -1.795117 
C  1.196788   1.855834   -1.605517 
H  1.399450   1.327154   -2.538896 
H  2.052279   1.810112   -0.935339 
O  0.088781   1.252686   -0.932786 
H  -0.821584   1.018054   -1.498841 
C  -0.016493   -0.454616   0.709735 
F  -0.142380   -1.728273   0.974614 
H  0.946221   -0.681616   -1.232171 
13 
Vibrational Frequency frame 
C  0.004026   -0.263628   -0.831372 
O  -1.096909   -0.418709   -1.510398 
F  1.133632   -0.034633   1.326205 
F  -1.131793   0.011979   1.272608 
H  0.928935   2.893249   -1.797491 
C  1.198152   1.857025   -1.606415 
H  1.399597   1.327175   -2.539461 
H  2.053899   1.809368   -0.936634 
O  0.088143   1.257285   -0.932986 
H  -0.821008   1.010915   -1.501128 
C  -0.019834   -0.459691   0.710131 
F  -0.138584   -1.736881   0.974066 
H  0.948219   -0.679579   -1.228069 
13 
Vibrational Frequency frame 
C  0.004323   -0.265407   -0.827960 
O  -1.095302   -0.419051   -1.507910 
F  1.125762   -0.033446   1.322738 
F  -1.127987   0.019603   1.272987 
H  0.934295   2.895128   -1.799864 
C  1.199516   1.858216   -1.607313 
H  1.399744   1.327196   -2.540025 
H  2.055519   1.808624   -0.937929 
O  0.087505   1.261884   -0.933185 
H  -0.820432   1.003777   -1.503415 
C  -0.023176   -0.464765   0.710527 
F  -0.134789   -1.745489   0.973518 
H  0.950216   -0.677542   -1.223966 
13 
Vibrational Frequency frame 
C  0.004619   -0.267186   -0.824547 
O  -1.093696   -0.419394   -1.505422 
F  1.117892   -0.032260   1.319271 
F  -1.124181   0.027227   1.273366 
H  0.939656   2.897006   -1.802237 
C  1.200881   1.859407   -1.608211 
H  1.399891   1.327217   -2.540590 
H  2.057139   1.807880   -0.939224 
O  0.086868   1.266483   -0.933385 
H  -0.819856   0.996639   -1.505702 
C  -0.026517   -0.469840   0.710923 
F  -0.130994   -1.754097   0.972969 
H  0.952214   -0.675504   -1.219864 
13 
Vibrational Frequency frame 
C  0.004915   -0.268964   -0.821134 
O  -1.092089   -0.419736   -1.502935 
F  1.110022   -0.031074   1.315804 
F  -1.120375   0.034851   1.273745 
H  0.945016   2.898885   -1.804610 
C  1.202245   1.860598   -1.609109 
H  1.400038   1.327238   -2.541155 
H  2.058759   1.807135   -0.940519 
O  0.086230   1.271082   -0.933585 
H  -0.819280   0.989500   -1.507988 
C  -0.029859   -0.474915   0.711319 
F  -0.127198   -1.762705   0.972421 
H  0.954212   -0.673467   -1.215761 
13 
Vibrational Frequency frame 
C  0.005212   -0.270743   -0.817721 
O  -1.090482   -0.420078   -1.500447 
F  1.102152   -0.029888   1.312337 
F  -1.116569   0.042475   1.274124 
H  0.950377   2.900764   -1.806983 
C  1.203609   1.861789   -1.610007 
H  1.400185   1.327259   -2.541719 
H  2.060380   1.806391   -0.941814 
O  0.085593   1.275682   -0.933785 
H  -0.818704   0.982362   -1.510275 
C  -0.033200   -0.479989   0.711715 
F  -0.123403   -1.771313   0.971872 
H  0.956210   -0.671429   -1.211658 
13 
Vibrational Frequency frame 
C  0.005508   -0.272522   -0.814309 
O  -1.088876   -0.420421   -1.497960 
F  1.094282   -0.028701   1.308870 
F  -1.112763   0.050099   1.274503 
H  0.955737   2.902643   -1.809356 
C  1.204973   1.862980   -1.610905 
H  1.400332   1.327280   -2.542284 
H  2.062000   1.805647   -0.943109 
O  0.084955   1.280281   -0.933984 
H  -0.818128   0.975224   -1.512562 
C  -0.036542   -0.485064   0.712111 
F  -0.119607   -1.779921   0.971324 
H  0.958208   -0.669392   -1.207556 
13 
Vibrational Frequency frame 
C  0.005805   -0.274301   -0.810896 
O  -1.087269   -0.420763   -1.495472 
F  1.086412   -0.027515   1.305403 
F  -1.108958   0.057723   1.274882 
H  0.961097   2.904521   -1.811730 
C  1.206337   1.864171   -1.611803 
H  1.400479   1.327301   -2.542849 
H  2.063620   1.804902   -0.944404 
O  0.084318   1.284880   -0.934184 
H  -0.817552   0.968085   -1.514849 
C  -0.039883   -0.490138   0.712506 
F  -0.115812   -1.788529   0.970775 
H  0.960206   -0.667355   -1.203453 
13 
Vibrational Frequency frame 
C  0.006101   -0.276080   -0.807483 
O  -1.085663   -0.421105   -1.492985 
F  1.078542   -0.026329   1.301936 
F  -1.105152   0.065347   1.275261 
H  0.966458   2.906400   -1.814103 
C  1.207701   1.865362   -1.612701 
H  1.400627   1.327322   -2.543413 
H  2.065240   1.804158   -0.945699 
O  0.083680   1.289479   -0.934384 
H  -0.816976   0.960947   -1.517135 
C  -0.043225   -0.495213   0.712902 
F  -0.112017   -1.797138   0.970227 
H  0.962204   -0.665317   -1.199350 
13 
Vibrational Frequency frame 
C  0.006397   -0.277858   -0.804070 
O  -1.084056   -0.421448   -1.490497 
F  1.070672   -0.025143   1.298469 
F  -1.101346   0.072971   1.275640 
H  0.971818   2.908279   -1.816476 
C  1.209065   1.866553   -1.613599 
H  1.400774   1.327343   -2.543978 
H  2.066860   1.803414   -0.946994 
O  0.083043   1.294078   -0.934584 
H  -0.816400   0.953809   -1.519422 
C  -0.046566   -0.500287   0.713298 
F  -0.108221   -1.805746   0.969678 
H  0.964201   -0.663280   -1.195248 
