13 
Vibrational Frequency frame 
C  0.006694   -0.279637   -0.800658 
O  -1.082449   -0.421790   -1.488009 
F  1.062803   -0.023956   1.295002 
F  -1.097540   0.080594   1.276019 
H  0.977178   2.910158   -1.818849 
C  1.210429   1.867744   -1.614497 
H  1.400921   1.327364   -2.544542 
H  2.068480   1.802669   -0.948289 
O  0.082405   1.298677   -0.934784 
H  -0.815825   0.946670   -1.521709 
C  -0.049908   -0.505362   0.713694 
F  -0.104426   -1.814354   0.969130 
H  0.966199   -0.661243   -1.191145 
13 
Vibrational Frequency frame 
C  0.006694   -0.279637   -0.800658 
O  -1.082449   -0.421790   -1.488009 
F  1.062803   -0.023956   1.295002 
F  -1.097540   0.080594   1.276019 
H  0.977178   2.910158   -1.818849 
C  1.210429   1.867744   -1.614497 
H  1.400921   1.327364   -2.544542 
H  2.068480   1.802669   -0.948289 
O  0.082405   1.298677   -0.934784 
H  -0.815825   0.946670   -1.521709 
C  -0.049908   -0.505362   0.713694 
F  -0.104426   -1.814354   0.969130 
H  0.966199   -0.661243   -1.191145 
13 
Vibrational Frequency frame 
C  0.006728   -0.279690   -0.800676 
O  -1.082442   -0.421782   -1.488005 
F  1.062802   -0.023956   1.295001 
F  -1.097540   0.080595   1.276019 
H  0.979177   2.901405   -1.817281 
C  1.211099   1.867734   -1.615269 
H  1.398212   1.335544   -2.530632 
H  2.060852   1.803181   -0.954395 
O  0.082439   1.298704   -0.934786 
H  -0.816046   0.946628   -1.521904 
C  -0.049907   -0.505362   0.713699 
F  -0.104426   -1.814352   0.969128 
H  0.965718   -0.660980   -1.190950 
13 
Vibrational Frequency frame 
C  0.006763   -0.279743   -0.800694 
O  -1.082434   -0.421775   -1.488001 
F  1.062801   -0.023956   1.295000 
F  -1.097540   0.080596   1.276019 
H  0.981175   2.892652   -1.815712 
C  1.211768   1.867724   -1.616041 
H  1.395504   1.343724   -2.516721 
H  2.053224   1.803692   -0.960501 
O  0.082473   1.298730   -0.934789 
H  -0.816267   0.946585   -1.522099 
C  -0.049905   -0.505363   0.713704 
F  -0.104426   -1.814350   0.969126 
H  0.965238   -0.660717   -1.190754 
13 
Vibrational Frequency frame 
C  0.006797   -0.279796   -0.800713 
O  -1.082426   -0.421767   -1.487996 
F  1.062801   -0.023956   1.294999 
F  -1.097541   0.080597   1.276019 
H  0.983173   2.883899   -1.814144 
C  1.212438   1.867714   -1.616813 
H  1.392795   1.351904   -2.502810 
H  2.045596   1.804203   -0.966608 
O  0.082507   1.298757   -0.934791 
H  -0.816488   0.946543   -1.522294 
C  -0.049904   -0.505363   0.713709 
F  -0.104426   -1.814348   0.969125 
H  0.964757   -0.660454   -1.190559 
13 
Vibrational Frequency frame 
C  0.006832   -0.279849   -0.800731 
O  -1.082419   -0.421759   -1.487992 
F  1.062800   -0.023956   1.294998 
F  -1.097541   0.080597   1.276019 
H  0.985171   2.875146   -1.812575 
C  1.213107   1.867703   -1.617585 
H  1.390086   1.360085   -2.488899 
H  2.037968   1.804714   -0.972714 
O  0.082541   1.298784   -0.934794 
H  -0.816709   0.946500   -1.522488 
C  -0.049902   -0.505364   0.713714 
F  -0.104426   -1.814346   0.969123 
H  0.964276   -0.660191   -1.190363 
13 
Vibrational Frequency frame 
C  0.006866   -0.279902   -0.800750 
O  -1.082411   -0.421751   -1.487988 
F  1.062799   -0.023956   1.294997 
F  -1.097541   0.080598   1.276020 
H  0.987169   2.866393   -1.811007 
C  1.213777   1.867693   -1.618357 
H  1.387378   1.368265   -2.474989 
H  2.030340   1.805225   -0.978821 
O  0.082574   1.298811   -0.934796 
H  -0.816930   0.946458   -1.522683 
C  -0.049901   -0.505364   0.713719 
F  -0.104426   -1.814344   0.969121 
H  0.963795   -0.659928   -1.190168 
13 
Vibrational Frequency frame 
C  0.006901   -0.279955   -0.800768 
O  -1.082403   -0.421744   -1.487983 
F  1.062799   -0.023955   1.294996 
F  -1.097542   0.080599   1.276020 
H  0.989167   2.857640   -1.809438 
C  1.214446   1.867683   -1.619130 
H  1.384669   1.376445   -2.461078 
H  2.022711   1.805737   -0.984927 
O  0.082608   1.298837   -0.934799 
H  -0.817151   0.946415   -1.522878 
C  -0.049900   -0.505365   0.713723 
F  -0.104426   -1.814342   0.969120 
H  0.963314   -0.659665   -1.189972 
13 
Vibrational Frequency frame 
C  0.006935   -0.280008   -0.800787 
O  -1.082395   -0.421736   -1.487979 
F  1.062798   -0.023955   1.294995 
F  -1.097542   0.080599   1.276020 
H  0.991165   2.848887   -1.807870 
C  1.215116   1.867673   -1.619902 
H  1.381960   1.384626   -2.447167 
H  2.015083   1.806248   -0.991033 
O  0.082642   1.298864   -0.934801 
H  -0.817372   0.946373   -1.523073 
C  -0.049898   -0.505365   0.713728 
F  -0.104426   -1.814340   0.969118 
H  0.962834   -0.659402   -1.189777 
13 
Vibrational Frequency frame 
C  0.006970   -0.280061   -0.800805 
O  -1.082388   -0.421728   -1.487975 
F  1.062797   -0.023955   1.294994 
F  -1.097542   0.080600   1.276020 
H  0.993163   2.840134   -1.806301 
C  1.215785   1.867663   -1.620674 
H  1.379252   1.392806   -2.433256 
H  2.007455   1.806759   -0.997140 
O  0.082676   1.298891   -0.934804 
H  -0.817593   0.946330   -1.523268 
C  -0.049897   -0.505366   0.713733 
F  -0.104426   -1.814339   0.969116 
H  0.962353   -0.659139   -1.189582 
13 
Vibrational Frequency frame 
C  0.007005   -0.280114   -0.800823 
O  -1.082380   -0.421720   -1.487970 
F  1.062797   -0.023955   1.294993 
F  -1.097543   0.080601   1.276021 
H  0.995161   2.831381   -1.804733 
C  1.216455   1.867652   -1.621446 
H  1.376543   1.400986   -2.419346 
H  1.999827   1.807270   -1.003246 
O  0.082710   1.298917   -0.934806 
H  -0.817814   0.946287   -1.523463 
C  -0.049895   -0.505366   0.713738 
F  -0.104426   -1.814337   0.969115 
H  0.961872   -0.658876   -1.189386 
13 
Vibrational Frequency frame 
C  0.007039   -0.280167   -0.800842 
O  -1.082372   -0.421713   -1.487966 
F  1.062796   -0.023955   1.294992 
F  -1.097543   0.080601   1.276021 
H  0.997159   2.822628   -1.803164 
C  1.217124   1.867642   -1.622218 
H  1.373835   1.409167   -2.405435 
H  1.992199   1.807781   -1.009352 
O  0.082744   1.298944   -0.934809 
H  -0.818035   0.946245   -1.523657 
C  -0.049894   -0.505367   0.713743 
F  -0.104426   -1.814335   0.969113 
H  0.961391   -0.658613   -1.189191 
13 
Vibrational Frequency frame 
C  0.007074   -0.280220   -0.800860 
O  -1.082364   -0.421705   -1.487961 
F  1.062795   -0.023954   1.294991 
F  -1.097543   0.080602   1.276021 
H  0.999157   2.813875   -1.801596 
C  1.217794   1.867632   -1.622990 
H  1.371126   1.417347   -2.391524 
H  1.984571   1.808292   -1.015459 
O  0.082777   1.298971   -0.934811 
H  -0.818256   0.946202   -1.523852 
C  -0.049893   -0.505367   0.713747 
F  -0.104427   -1.814333   0.969111 
H  0.960910   -0.658350   -1.188995 
13 
Vibrational Frequency frame 
C  0.007108   -0.280273   -0.800879 
O  -1.082357   -0.421697   -1.487957 
F  1.062795   -0.023954   1.294990 
F  -1.097544   0.080603   1.276021 
H  1.001155   2.805122   -1.800027 
C  1.218464   1.867622   -1.623763 
H  1.368417   1.425527   -2.377613 
H  1.976942   1.808804   -1.021565 
O  0.082811   1.298997   -0.934814 
H  -0.818477   0.946160   -1.524047 
C  -0.049891   -0.505368   0.713752 
F  -0.104427   -1.814331   0.969110 
H  0.960429   -0.658087   -1.188800 
13 
Vibrational Frequency frame 
C  0.007143   -0.280326   -0.800897 
O  -1.082349   -0.421689   -1.487953 
F  1.062794   -0.023954   1.294989 
F  -1.097544   0.080603   1.276021 
H  1.003154   2.796369   -1.798459 
C  1.219133   1.867612   -1.624535 
H  1.365709   1.433707   -2.363703 
H  1.969314   1.809315   -1.027671 
O  0.082845   1.299024   -0.934816 
H  -0.818698   0.946117   -1.524242 
C  -0.049890   -0.505368   0.713757 
F  -0.104427   -1.814329   0.969108 
H  0.959949   -0.657824   -1.188604 
13 
Vibrational Frequency frame 
C  0.007177   -0.280379   -0.800916 
O  -1.082341   -0.421682   -1.487948 
F  1.062793   -0.023954   1.294988 
F  -1.097544   0.080604   1.276022 
H  1.005152   2.787616   -1.796890 
C  1.219803   1.867601   -1.625307 
H  1.363000   1.441888   -2.349792 
H  1.961686   1.809826   -1.033778 
O  0.082879   1.299051   -0.934819 
H  -0.818919   0.946075   -1.524437 
C  -0.049888   -0.505369   0.713762 
F  -0.104427   -1.814327   0.969106 
H  0.959468   -0.657561   -1.188409 
13 
Vibrational Frequency frame 
C  0.007212   -0.280432   -0.800934 
O  -1.082334   -0.421674   -1.487944 
F  1.062793   -0.023954   1.294987 
F  -1.097545   0.080605   1.276022 
H  1.007150   2.778863   -1.795322 
C  1.220472   1.867591   -1.626079 
H  1.360292   1.450068   -2.335881 
H  1.954058   1.810337   -1.039884 
O  0.082913   1.299078   -0.934821 
H  -0.819140   0.946032   -1.524632 
C  -0.049887   -0.505369   0.713767 
F  -0.104427   -1.814325   0.969104 
H  0.958987   -0.657298   -1.188213 
13 
Vibrational Frequency frame 
C  0.007246   -0.280485   -0.800952 
O  -1.082326   -0.421666   -1.487940 
F  1.062792   -0.023954   1.294986 
F  -1.097545   0.080605   1.276022 
H  1.009148   2.770110   -1.793753 
C  1.221142   1.867581   -1.626851 
H  1.357583   1.458248   -2.321971 
H  1.946430   1.810848   -1.045990 
O  0.082946   1.299104   -0.934824 
H  -0.819361   0.945990   -1.524827 
C  -0.049886   -0.505370   0.713772 
F  -0.104427   -1.814323   0.969103 
H  0.958506   -0.657035   -1.188018 
13 
Vibrational Frequency frame 
C  0.007281   -0.280538   -0.800971 
O  -1.082318   -0.421658   -1.487935 
F  1.062791   -0.023953   1.294985 
F  -1.097545   0.080606   1.276022 
H  1.011146   2.761357   -1.792185 
C  1.221811   1.867571   -1.627624 
H  1.354874   1.466429   -2.308060 
H  1.938802   1.811360   -1.052097 
O  0.082980   1.299131   -0.934826 
H  -0.819582   0.945947   -1.525021 
C  -0.049884   -0.505370   0.713776 
F  -0.104427   -1.814321   0.969101 
H  0.958025   -0.656772   -1.187822 
13 
Vibrational Frequency frame 
C  0.007315   -0.280591   -0.800989 
O  -1.082310   -0.421651   -1.487931 
F  1.062791   -0.023953   1.294984 
F  -1.097545   0.080607   1.276023 
H  1.013144   2.752604   -1.790616 
C  1.222481   1.867561   -1.628396 
H  1.352166   1.474609   -2.294149 
H  1.931173   1.811871   -1.058203 
O  0.083014   1.299158   -0.934829 
H  -0.819803   0.945905   -1.525216 
C  -0.049883   -0.505371   0.713781 
F  -0.104427   -1.814320   0.969099 
H  0.957545   -0.656509   -1.187627 
13 
Vibrational Frequency frame 
C  0.007350   -0.280644   -0.801008 
O  -1.082303   -0.421643   -1.487927 
F  1.062790   -0.023953   1.294983 
F  -1.097546   0.080608   1.276023 
H  1.015142   2.743852   -1.789048 
C  1.223150   1.867551   -1.629168 
H  1.349457   1.482789   -2.280238 
H  1.923545   1.812382   -1.064310 
O  0.083048   1.299184   -0.934831 
H  -0.820024   0.945862   -1.525411 
C  -0.049881   -0.505371   0.713786 
F  -0.104427   -1.814318   0.969098 
H  0.957064   -0.656246   -1.187431 
13 
Vibrational Frequency frame 
C  0.007385   -0.280697   -0.801026 
O  -1.082295   -0.421635   -1.487922 
F  1.062790   -0.023953   1.294982 
F  -1.097546   0.080608   1.276023 
H  1.017140   2.735099   -1.787479 
C  1.223820   1.867540   -1.629940 
H  1.346749   1.490970   -2.266328 
H  1.915917   1.812893   -1.070416 
O  0.083082   1.299211   -0.934834 
H  -0.820245   0.945819   -1.525606 
C  -0.049880   -0.505372   0.713791 
F  -0.104427   -1.814316   0.969096 
H  0.956583   -0.655983   -1.187236 
13 
Vibrational Frequency frame 
C  0.007419   -0.280750   -0.801045 
O  -1.082287   -0.421627   -1.487918 
F  1.062789   -0.023953   1.294981 
F  -1.097546   0.080609   1.276023 
H  1.019138   2.726346   -1.785911 
C  1.224489   1.867530   -1.630712 
H  1.344040   1.499150   -2.252417 
H  1.908289   1.813404   -1.076522 
O  0.083115   1.299238   -0.934836 
H  -0.820466   0.945777   -1.525801 
C  -0.049878   -0.505372   0.713796 
F  -0.104427   -1.814314   0.969094 
H  0.956102   -0.655720   -1.187041 
13 
Vibrational Frequency frame 
C  0.007454   -0.280803   -0.801063 
O  -1.082279   -0.421619   -1.487914 
F  1.062788   -0.023952   1.294980 
F  -1.097547   0.080610   1.276024 
H  1.021136   2.717593   -1.784342 
C  1.225159   1.867520   -1.631484 
H  1.341331   1.507330   -2.238506 
H  1.900661   1.813915   -1.082629 
O  0.083149   1.299265   -0.934839 
H  -0.820687   0.945734   -1.525996 
C  -0.049877   -0.505373   0.713801 
F  -0.104427   -1.814312   0.969093 
H  0.955621   -0.655457   -1.186845 
13 
Vibrational Frequency frame 
C  0.007488   -0.280855   -0.801081 
O  -1.082272   -0.421612   -1.487909 
F  1.062788   -0.023952   1.294979 
F  -1.097547   0.080610   1.276024 
H  1.023134   2.708840   -1.782774 
C  1.225828   1.867510   -1.632257 
H  1.338623   1.515510   -2.224595 
H  1.893033   1.814427   -1.088735 
O  0.083183   1.299291   -0.934841 
H  -0.820908   0.945692   -1.526191 
C  -0.049876   -0.505373   0.713805 
F  -0.104427   -1.814310   0.969091 
H  0.955141   -0.655194   -1.186650 
13 
Vibrational Frequency frame 
C  0.007523   -0.280908   -0.801100 
O  -1.082264   -0.421604   -1.487905 
F  1.062787   -0.023952   1.294978 
F  -1.097547   0.080611   1.276024 
H  1.025132   2.700087   -1.781205 
C  1.226498   1.867500   -1.633029 
H  1.335914   1.523691   -2.210685 
H  1.885404   1.814938   -1.094841 
O  0.083217   1.299318   -0.934844 
H  -0.821129   0.945649   -1.526385 
C  -0.049874   -0.505374   0.713810 
F  -0.104427   -1.814308   0.969089 
H  0.954660   -0.654931   -1.186454 
13 
Vibrational Frequency frame 
C  0.007557   -0.280961   -0.801118 
O  -1.082256   -0.421596   -1.487900 
F  1.062786   -0.023952   1.294977 
F  -1.097548   0.080612   1.276024 
H  1.027131   2.691334   -1.779637 
C  1.227167   1.867489   -1.633801 
H  1.333206   1.531871   -2.196774 
H  1.877776   1.815449   -1.100948 
O  0.083251   1.299345   -0.934846 
H  -0.821350   0.945607   -1.526580 
C  -0.049873   -0.505374   0.713815 
F  -0.104427   -1.814306   0.969088 
H  0.954179   -0.654668   -1.186259 
13 
Vibrational Frequency frame 
C  0.007523   -0.280908   -0.801100 
O  -1.082264   -0.421604   -1.487905 
F  1.062787   -0.023952   1.294978 
F  -1.097547   0.080611   1.276024 
H  1.025132   2.700087   -1.781205 
C  1.226498   1.867500   -1.633029 
H  1.335914   1.523691   -2.210685 
H  1.885404   1.814938   -1.094841 
O  0.083217   1.299318   -0.934844 
H  -0.821129   0.945649   -1.526385 
C  -0.049874   -0.505374   0.713810 
F  -0.104427   -1.814308   0.969089 
H  0.954660   -0.654931   -1.186454 
13 
Vibrational Frequency frame 
C  0.007488   -0.280855   -0.801081 
O  -1.082272   -0.421612   -1.487909 
F  1.062788   -0.023952   1.294979 
F  -1.097547   0.080610   1.276024 
H  1.023134   2.708840   -1.782774 
C  1.225828   1.867510   -1.632257 
H  1.338623   1.515510   -2.224595 
H  1.893033   1.814427   -1.088735 
O  0.083183   1.299291   -0.934841 
H  -0.820908   0.945692   -1.526191 
C  -0.049876   -0.505373   0.713805 
F  -0.104427   -1.814310   0.969091 
H  0.955141   -0.655194   -1.186650 
13 
Vibrational Frequency frame 
C  0.007454   -0.280803   -0.801063 
O  -1.082279   -0.421619   -1.487914 
F  1.062788   -0.023952   1.294980 
F  -1.097547   0.080610   1.276024 
H  1.021136   2.717593   -1.784342 
C  1.225159   1.867520   -1.631484 
H  1.341331   1.507330   -2.238506 
H  1.900661   1.813915   -1.082629 
O  0.083149   1.299265   -0.934839 
H  -0.820687   0.945734   -1.525996 
C  -0.049877   -0.505373   0.713801 
F  -0.104427   -1.814312   0.969093 
H  0.955621   -0.655457   -1.186845 
13 
Vibrational Frequency frame 
C  0.007419   -0.280750   -0.801045 
O  -1.082287   -0.421627   -1.487918 
F  1.062789   -0.023953   1.294981 
F  -1.097546   0.080609   1.276023 
H  1.019138   2.726346   -1.785911 
C  1.224489   1.867530   -1.630712 
H  1.344040   1.499150   -2.252417 
H  1.908289   1.813404   -1.076522 
O  0.083115   1.299238   -0.934836 
H  -0.820466   0.945777   -1.525801 
C  -0.049878   -0.505372   0.713796 
F  -0.104427   -1.814314   0.969094 
H  0.956102   -0.655720   -1.187041 
13 
Vibrational Frequency frame 
C  0.007385   -0.280697   -0.801026 
O  -1.082295   -0.421635   -1.487922 
F  1.062790   -0.023953   1.294982 
F  -1.097546   0.080608   1.276023 
H  1.017140   2.735099   -1.787479 
C  1.223820   1.867540   -1.629940 
H  1.346749   1.490970   -2.266328 
H  1.915917   1.812893   -1.070416 
O  0.083082   1.299211   -0.934834 
H  -0.820245   0.945819   -1.525606 
C  -0.049880   -0.505372   0.713791 
F  -0.104427   -1.814316   0.969096 
H  0.956583   -0.655983   -1.187236 
13 
Vibrational Frequency frame 
C  0.007350   -0.280644   -0.801008 
O  -1.082303   -0.421643   -1.487927 
F  1.062790   -0.023953   1.294983 
F  -1.097546   0.080608   1.276023 
H  1.015142   2.743852   -1.789048 
C  1.223150   1.867551   -1.629168 
H  1.349457   1.482789   -2.280238 
H  1.923545   1.812382   -1.064310 
O  0.083048   1.299184   -0.934831 
H  -0.820024   0.945862   -1.525411 
C  -0.049881   -0.505371   0.713786 
F  -0.104427   -1.814318   0.969098 
H  0.957064   -0.656246   -1.187431 
13 
Vibrational Frequency frame 
C  0.007315   -0.280591   -0.800989 
O  -1.082310   -0.421651   -1.487931 
F  1.062791   -0.023953   1.294984 
F  -1.097545   0.080607   1.276023 
H  1.013144   2.752604   -1.790616 
C  1.222481   1.867561   -1.628396 
H  1.352166   1.474609   -2.294149 
H  1.931173   1.811871   -1.058203 
O  0.083014   1.299158   -0.934829 
H  -0.819803   0.945905   -1.525216 
C  -0.049883   -0.505371   0.713781 
F  -0.104427   -1.814320   0.969099 
H  0.957545   -0.656509   -1.187627 
13 
Vibrational Frequency frame 
C  0.007281   -0.280538   -0.800971 
O  -1.082318   -0.421658   -1.487935 
F  1.062791   -0.023953   1.294985 
F  -1.097545   0.080606   1.276022 
H  1.011146   2.761357   -1.792185 
C  1.221811   1.867571   -1.627624 
H  1.354874   1.466429   -2.308060 
H  1.938802   1.811360   -1.052097 
O  0.082980   1.299131   -0.934826 
H  -0.819582   0.945947   -1.525021 
C  -0.049884   -0.505370   0.713776 
F  -0.104427   -1.814321   0.969101 
H  0.958025   -0.656772   -1.187822 
13 
Vibrational Frequency frame 
C  0.007246   -0.280485   -0.800952 
O  -1.082326   -0.421666   -1.487940 
F  1.062792   -0.023954   1.294986 
F  -1.097545   0.080605   1.276022 
H  1.009148   2.770110   -1.793753 
C  1.221142   1.867581   -1.626851 
H  1.357583   1.458248   -2.321971 
H  1.946430   1.810848   -1.045990 
O  0.082946   1.299104   -0.934824 
H  -0.819361   0.945990   -1.524827 
C  -0.049886   -0.505370   0.713772 
F  -0.104427   -1.814323   0.969103 
H  0.958506   -0.657035   -1.188018 
13 
Vibrational Frequency frame 
C  0.007212   -0.280432   -0.800934 
O  -1.082334   -0.421674   -1.487944 
F  1.062793   -0.023954   1.294987 
F  -1.097545   0.080605   1.276022 
H  1.007150   2.778863   -1.795322 
C  1.220472   1.867591   -1.626079 
H  1.360292   1.450068   -2.335881 
H  1.954058   1.810337   -1.039884 
O  0.082913   1.299078   -0.934821 
H  -0.819140   0.946032   -1.524632 
C  -0.049887   -0.505369   0.713767 
F  -0.104427   -1.814325   0.969104 
H  0.958987   -0.657298   -1.188213 
13 
Vibrational Frequency frame 
C  0.007177   -0.280379   -0.800916 
O  -1.082341   -0.421682   -1.487948 
F  1.062793   -0.023954   1.294988 
F  -1.097544   0.080604   1.276022 
H  1.005152   2.787616   -1.796890 
C  1.219803   1.867601   -1.625307 
H  1.363000   1.441888   -2.349792 
H  1.961686   1.809826   -1.033778 
O  0.082879   1.299051   -0.934819 
H  -0.818919   0.946075   -1.524437 
C  -0.049888   -0.505369   0.713762 
F  -0.104427   -1.814327   0.969106 
H  0.959468   -0.657561   -1.188409 
13 
Vibrational Frequency frame 
C  0.007143   -0.280326   -0.800897 
O  -1.082349   -0.421689   -1.487953 
F  1.062794   -0.023954   1.294989 
F  -1.097544   0.080603   1.276021 
H  1.003154   2.796369   -1.798459 
C  1.219133   1.867612   -1.624535 
H  1.365709   1.433707   -2.363703 
H  1.969314   1.809315   -1.027671 
O  0.082845   1.299024   -0.934816 
H  -0.818698   0.946117   -1.524242 
C  -0.049890   -0.505368   0.713757 
F  -0.104427   -1.814329   0.969108 
H  0.959949   -0.657824   -1.188604 
13 
Vibrational Frequency frame 
C  0.007108   -0.280273   -0.800879 
O  -1.082357   -0.421697   -1.487957 
F  1.062795   -0.023954   1.294990 
F  -1.097544   0.080603   1.276021 
H  1.001155   2.805122   -1.800027 
C  1.218464   1.867622   -1.623763 
H  1.368417   1.425527   -2.377613 
H  1.976942   1.808804   -1.021565 
O  0.082811   1.298997   -0.934814 
H  -0.818477   0.946160   -1.524047 
C  -0.049891   -0.505368   0.713752 
F  -0.104427   -1.814331   0.969110 
H  0.960429   -0.658087   -1.188800 
13 
Vibrational Frequency frame 
C  0.007074   -0.280220   -0.800860 
O  -1.082364   -0.421705   -1.487961 
F  1.062795   -0.023954   1.294991 
F  -1.097543   0.080602   1.276021 
H  0.999157   2.813875   -1.801596 
C  1.217794   1.867632   -1.622990 
H  1.371126   1.417347   -2.391524 
H  1.984571   1.808292   -1.015459 
O  0.082777   1.298971   -0.934811 
H  -0.818256   0.946202   -1.523852 
C  -0.049893   -0.505367   0.713747 
F  -0.104427   -1.814333   0.969111 
H  0.960910   -0.658350   -1.188995 
13 
Vibrational Frequency frame 
C  0.007039   -0.280167   -0.800842 
O  -1.082372   -0.421713   -1.487966 
F  1.062796   -0.023955   1.294992 
F  -1.097543   0.080601   1.276021 
H  0.997159   2.822628   -1.803164 
C  1.217124   1.867642   -1.622218 
H  1.373835   1.409167   -2.405435 
H  1.992199   1.807781   -1.009352 
O  0.082744   1.298944   -0.934809 
H  -0.818035   0.946245   -1.523657 
C  -0.049894   -0.505367   0.713743 
F  -0.104426   -1.814335   0.969113 
H  0.961391   -0.658613   -1.189191 
13 
Vibrational Frequency frame 
C  0.007005   -0.280114   -0.800823 
O  -1.082380   -0.421720   -1.487970 
F  1.062797   -0.023955   1.294993 
F  -1.097543   0.080601   1.276021 
H  0.995161   2.831381   -1.804733 
C  1.216455   1.867652   -1.621446 
H  1.376543   1.400986   -2.419346 
H  1.999827   1.807270   -1.003246 
O  0.082710   1.298917   -0.934806 
H  -0.817814   0.946287   -1.523463 
C  -0.049895   -0.505366   0.713738 
F  -0.104426   -1.814337   0.969115 
H  0.961872   -0.658876   -1.189386 
13 
Vibrational Frequency frame 
C  0.006970   -0.280061   -0.800805 
O  -1.082388   -0.421728   -1.487975 
F  1.062797   -0.023955   1.294994 
F  -1.097542   0.080600   1.276020 
H  0.993163   2.840134   -1.806301 
C  1.215785   1.867663   -1.620674 
H  1.379252   1.392806   -2.433256 
H  2.007455   1.806759   -0.997140 
O  0.082676   1.298891   -0.934804 
H  -0.817593   0.946330   -1.523268 
C  -0.049897   -0.505366   0.713733 
F  -0.104426   -1.814339   0.969116 
H  0.962353   -0.659139   -1.189582 
13 
Vibrational Frequency frame 
C  0.006935   -0.280008   -0.800787 
O  -1.082395   -0.421736   -1.487979 
F  1.062798   -0.023955   1.294995 
F  -1.097542   0.080599   1.276020 
H  0.991165   2.848887   -1.807870 
C  1.215116   1.867673   -1.619902 
H  1.381960   1.384626   -2.447167 
H  2.015083   1.806248   -0.991033 
O  0.082642   1.298864   -0.934801 
H  -0.817372   0.946373   -1.523073 
C  -0.049898   -0.505365   0.713728 
F  -0.104426   -1.814340   0.969118 
H  0.962834   -0.659402   -1.189777 
13 
Vibrational Frequency frame 
C  0.006901   -0.279955   -0.800768 
O  -1.082403   -0.421744   -1.487983 
F  1.062799   -0.023955   1.294996 
F  -1.097542   0.080599   1.276020 
H  0.989167   2.857640   -1.809438 
C  1.214446   1.867683   -1.619130 
H  1.384669   1.376445   -2.461078 
H  2.022711   1.805737   -0.984927 
O  0.082608   1.298837   -0.934799 
H  -0.817151   0.946415   -1.522878 
C  -0.049900   -0.505365   0.713723 
F  -0.104426   -1.814342   0.969120 
H  0.963314   -0.659665   -1.189972 
13 
Vibrational Frequency frame 
C  0.006866   -0.279902   -0.800750 
O  -1.082411   -0.421751   -1.487988 
F  1.062799   -0.023956   1.294997 
F  -1.097541   0.080598   1.276020 
H  0.987169   2.866393   -1.811007 
C  1.213777   1.867693   -1.618357 
H  1.387378   1.368265   -2.474989 
H  2.030340   1.805225   -0.978821 
O  0.082574   1.298811   -0.934796 
H  -0.816930   0.946458   -1.522683 
C  -0.049901   -0.505364   0.713719 
F  -0.104426   -1.814344   0.969121 
H  0.963795   -0.659928   -1.190168 
13 
Vibrational Frequency frame 
C  0.006832   -0.279849   -0.800731 
O  -1.082419   -0.421759   -1.487992 
F  1.062800   -0.023956   1.294998 
F  -1.097541   0.080597   1.276019 
H  0.985171   2.875146   -1.812575 
C  1.213107   1.867703   -1.617585 
H  1.390086   1.360085   -2.488899 
H  2.037968   1.804714   -0.972714 
O  0.082541   1.298784   -0.934794 
H  -0.816709   0.946500   -1.522488 
C  -0.049902   -0.505364   0.713714 
F  -0.104426   -1.814346   0.969123 
H  0.964276   -0.660191   -1.190363 
13 
Vibrational Frequency frame 
C  0.006797   -0.279796   -0.800713 
O  -1.082426   -0.421767   -1.487996 
F  1.062801   -0.023956   1.294999 
F  -1.097541   0.080597   1.276019 
H  0.983173   2.883899   -1.814144 
C  1.212438   1.867714   -1.616813 
H  1.392795   1.351904   -2.502810 
H  2.045596   1.804203   -0.966608 
O  0.082507   1.298757   -0.934791 
H  -0.816488   0.946543   -1.522294 
C  -0.049904   -0.505363   0.713709 
F  -0.104426   -1.814348   0.969125 
H  0.964757   -0.660454   -1.190559 
13 
Vibrational Frequency frame 
C  0.006763   -0.279743   -0.800694 
O  -1.082434   -0.421775   -1.488001 
F  1.062801   -0.023956   1.295000 
F  -1.097540   0.080596   1.276019 
H  0.981175   2.892652   -1.815712 
C  1.211768   1.867724   -1.616041 
H  1.395504   1.343724   -2.516721 
H  2.053224   1.803692   -0.960501 
O  0.082473   1.298730   -0.934789 
H  -0.816267   0.946585   -1.522099 
C  -0.049905   -0.505363   0.713704 
F  -0.104426   -1.814350   0.969126 
H  0.965238   -0.660717   -1.190754 
13 
Vibrational Frequency frame 
C  0.006728   -0.279690   -0.800676 
O  -1.082442   -0.421782   -1.488005 
F  1.062802   -0.023956   1.295001 
F  -1.097540   0.080595   1.276019 
H  0.979177   2.901405   -1.817281 
C  1.211099   1.867734   -1.615269 
H  1.398212   1.335544   -2.530632 
H  2.060852   1.803181   -0.954395 
O  0.082439   1.298704   -0.934786 
H  -0.816046   0.946628   -1.521904 
C  -0.049907   -0.505362   0.713699 
F  -0.104426   -1.814352   0.969128 
H  0.965718   -0.660980   -1.190950 
