13 
Vibrational Frequency frame 
C  0.006694   -0.279637   -0.800658 
O  -1.082449   -0.421790   -1.488009 
F  1.062803   -0.023956   1.295002 
F  -1.097540   0.080594   1.276019 
H  0.977178   2.910158   -1.818849 
C  1.210429   1.867744   -1.614497 
H  1.400921   1.327364   -2.544542 
H  2.068480   1.802669   -0.948289 
O  0.082405   1.298677   -0.934784 
H  -0.815825   0.946670   -1.521709 
C  -0.049908   -0.505362   0.713694 
F  -0.104426   -1.814354   0.969130 
H  0.966199   -0.661243   -1.191145 
13 
Vibrational Frequency frame 
C  0.006694   -0.279637   -0.800658 
O  -1.082449   -0.421790   -1.488009 
F  1.062803   -0.023956   1.295002 
F  -1.097540   0.080594   1.276019 
H  0.977178   2.910158   -1.818849 
C  1.210429   1.867744   -1.614497 
H  1.400921   1.327364   -2.544542 
H  2.068480   1.802669   -0.948289 
O  0.082405   1.298677   -0.934784 
H  -0.815825   0.946670   -1.521709 
C  -0.049908   -0.505362   0.713694 
F  -0.104426   -1.814354   0.969130 
H  0.966199   -0.661243   -1.191145 
13 
Vibrational Frequency frame 
C  0.005457   -0.281146   -0.801679 
O  -1.083665   -0.423826   -1.488856 
F  1.064206   -0.023624   1.291695 
F  -1.096135   0.082482   1.275851 
H  0.977396   2.911253   -1.813267 
C  1.211713   1.869233   -1.608103 
H  1.409887   1.330012   -2.537236 
H  2.065437   1.805607   -0.936162 
O  0.080591   1.297030   -0.936331 
H  -0.815965   0.944597   -1.525520 
C  -0.049872   -0.505254   0.712898 
F  -0.104992   -1.813703   0.970667 
H  0.965029   -0.662535   -1.192304 
13 
Vibrational Frequency frame 
C  0.004220   -0.282656   -0.802701 
O  -1.084880   -0.425862   -1.489703 
F  1.065609   -0.023292   1.288388 
F  -1.094731   0.084369   1.275683 
H  0.977614   2.912348   -1.807684 
C  1.212996   1.870722   -1.601710 
H  1.418854   1.332660   -2.529930 
H  2.062394   1.808545   -0.924035 
O  0.078777   1.295382   -0.937878 
H  -0.816106   0.942524   -1.529331 
C  -0.049836   -0.505145   0.712102 
F  -0.105557   -1.813053   0.972204 
H  0.963858   -0.663827   -1.193463 
13 
Vibrational Frequency frame 
C  0.002983   -0.284165   -0.803722 
O  -1.086095   -0.427898   -1.490550 
F  1.067012   -0.022960   1.285081 
F  -1.093327   0.086256   1.275515 
H  0.977831   2.913443   -1.802101 
C  1.214280   1.872212   -1.595317 
H  1.427821   1.335308   -2.522624 
H  2.059351   1.811483   -0.911908 
O  0.076963   1.293735   -0.939426 
H  -0.816247   0.940451   -1.533143 
C  -0.049800   -0.505037   0.711306 
F  -0.106123   -1.812402   0.973742 
H  0.962688   -0.665119   -1.194621 
13 
Vibrational Frequency frame 
C  0.001747   -0.285674   -0.804743 
O  -1.087310   -0.429934   -1.491397 
F  1.068415   -0.022628   1.281774 
F  -1.091922   0.088143   1.275347 
H  0.978049   2.914538   -1.796518 
C  1.215564   1.873701   -1.588924 
H  1.436788   1.337956   -2.515318 
H  2.056308   1.814421   -0.899781 
O  0.075149   1.292087   -0.940973 
H  -0.816388   0.938378   -1.536954 
C  -0.049764   -0.504929   0.710509 
F  -0.106689   -1.811751   0.975279 
H  0.961517   -0.666411   -1.195780 
13 
Vibrational Frequency frame 
C  0.000510   -0.287183   -0.805765 
O  -1.088525   -0.431971   -1.492244 
F  1.069818   -0.022296   1.278466 
F  -1.090518   0.090030   1.275180 
H  0.978266   2.915632   -1.790936 
C  1.216847   1.875190   -1.582530 
H  1.445754   1.340604   -2.508012 
H  2.053265   1.817359   -0.887654 
O  0.073335   1.290440   -0.942521 
H  -0.816529   0.936305   -1.540765 
C  -0.049728   -0.504821   0.709713 
F  -0.107254   -1.811101   0.976816 
H  0.960347   -0.667703   -1.196938 
13 
Vibrational Frequency frame 
C  -0.000727   -0.288693   -0.806786 
O  -1.089740   -0.434007   -1.493090 
F  1.071221   -0.021964   1.275159 
F  -1.089113   0.091917   1.275012 
H  0.978484   2.916727   -1.785353 
C  1.218131   1.876679   -1.576137 
H  1.454721   1.343252   -2.500706 
H  2.050222   1.820296   -0.875527 
O  0.071521   1.288792   -0.944068 
H  -0.816670   0.934232   -1.544577 
C  -0.049692   -0.504713   0.708917 
F  -0.107820   -1.810450   0.978354 
H  0.959176   -0.668995   -1.198097 
13 
Vibrational Frequency frame 
C  -0.001963   -0.290202   -0.807808 
O  -1.090955   -0.436043   -1.493937 
F  1.072624   -0.021632   1.271852 
F  -1.087709   0.093804   1.274844 
H  0.978701   2.917822   -1.779770 
C  1.219414   1.878168   -1.569744 
H  1.463688   1.345900   -2.493399 
H  2.047179   1.823234   -0.863400 
O  0.069707   1.287145   -0.945615 
H  -0.816811   0.932159   -1.548388 
C  -0.049657   -0.504605   0.708120 
F  -0.108386   -1.809799   0.979891 
H  0.958006   -0.670287   -1.199256 
13 
Vibrational Frequency frame 
C  -0.003200   -0.291711   -0.808829 
O  -1.092170   -0.438079   -1.494784 
F  1.074027   -0.021300   1.268545 
F  -1.086305   0.095691   1.274676 
H  0.978919   2.918917   -1.774188 
C  1.220698   1.879657   -1.563350 
H  1.472655   1.348548   -2.486093 
H  2.044136   1.826172   -0.851273 
O  0.067893   1.285497   -0.947163 
H  -0.816952   0.930086   -1.552199 
C  -0.049621   -0.504497   0.707324 
F  -0.108951   -1.809149   0.981428 
H  0.956835   -0.671580   -1.200414 
13 
Vibrational Frequency frame 
C  -0.004437   -0.293220   -0.809851 
O  -1.093385   -0.440115   -1.495631 
F  1.075430   -0.020968   1.265237 
F  -1.084900   0.097578   1.274509 
H  0.979136   2.920012   -1.768605 
C  1.221981   1.881146   -1.556957 
H  1.481621   1.351196   -2.478787 
H  2.041093   1.829110   -0.839147 
O  0.066079   1.283850   -0.948710 
H  -0.817093   0.928013   -1.556010 
C  -0.049585   -0.504389   0.706528 
F  -0.109517   -1.808498   0.982965 
H  0.955665   -0.672872   -1.201573 
13 
Vibrational Frequency frame 
C  -0.005674   -0.294730   -0.810872 
O  -1.094600   -0.442151   -1.496478 
F  1.076833   -0.020636   1.261930 
F  -1.083496   0.099465   1.274341 
H  0.979354   2.921107   -1.763022 
C  1.223265   1.882635   -1.550564 
H  1.490588   1.353844   -2.471481 
H  2.038050   1.832048   -0.827020 
O  0.064265   1.282202   -0.950258 
H  -0.817234   0.925940   -1.559822 
C  -0.049549   -0.504280   0.705732 
F  -0.110083   -1.807847   0.984503 
H  0.954495   -0.674164   -1.202732 
13 
Vibrational Frequency frame 
C  -0.006910   -0.296239   -0.811894 
O  -1.095815   -0.444187   -1.497324 
F  1.078236   -0.020304   1.258623 
F  -1.082092   0.101352   1.274173 
H  0.979571   2.922202   -1.757440 
C  1.224549   1.884124   -1.544171 
H  1.499555   1.356492   -2.464175 
H  2.035007   1.834985   -0.814893 
O  0.062451   1.280555   -0.951805 
H  -0.817375   0.923867   -1.563633 
C  -0.049513   -0.504172   0.704935 
F  -0.110649   -1.807197   0.986040 
H  0.953324   -0.675456   -1.203890 
13 
Vibrational Frequency frame 
C  -0.008147   -0.297748   -0.812915 
O  -1.097030   -0.446223   -1.498171 
F  1.079639   -0.019972   1.255316 
F  -1.080687   0.103239   1.274005 
H  0.979789   2.923297   -1.751857 
C  1.225832   1.885613   -1.537777 
H  1.508522   1.359141   -2.456869 
H  2.031964   1.837923   -0.802766 
O  0.060637   1.278907   -0.953352 
H  -0.817516   0.921794   -1.567444 
C  -0.049477   -0.504064   0.704139 
F  -0.111214   -1.806546   0.987577 
H  0.952154   -0.676748   -1.205049 
13 
Vibrational Frequency frame 
C  -0.009384   -0.299257   -0.813937 
O  -1.098246   -0.448259   -1.499018 
F  1.081042   -0.019640   1.252008 
F  -1.079283   0.105127   1.273837 
H  0.980006   2.924392   -1.746274 
C  1.227116   1.887102   -1.531384 
H  1.517488   1.361789   -2.449563 
H  2.028921   1.840861   -0.790639 
O  0.058823   1.277260   -0.954900 
H  -0.817657   0.919721   -1.571255 
C  -0.049441   -0.503956   0.703343 
F  -0.111780   -1.805895   0.989115 
H  0.950983   -0.678040   -1.206208 
13 
Vibrational Frequency frame 
C  -0.010620   -0.300767   -0.814958 
O  -1.099461   -0.450295   -1.499865 
F  1.082445   -0.019308   1.248701 
F  -1.077878   0.107014   1.273670 
H  0.980224   2.925487   -1.740691 
C  1.228399   1.888592   -1.524991 
H  1.526455   1.364437   -2.442256 
H  2.025878   1.843799   -0.778512 
O  0.057009   1.275612   -0.956447 
H  -0.817797   0.917648   -1.575067 
C  -0.049405   -0.503848   0.702546 
F  -0.112346   -1.805245   0.990652 
H  0.949813   -0.679332   -1.207366 
13 
Vibrational Frequency frame 
C  -0.011857   -0.302276   -0.815980 
O  -1.100676   -0.452332   -1.500712 
F  1.083848   -0.018976   1.245394 
F  -1.076474   0.108901   1.273502 
H  0.980441   2.926582   -1.735109 
C  1.229683   1.890081   -1.518598 
H  1.535422   1.367085   -2.434950 
H  2.022835   1.846737   -0.766385 
O  0.055195   1.273965   -0.957995 
H  -0.817938   0.915575   -1.578878 
C  -0.049369   -0.503740   0.701750 
F  -0.112911   -1.804594   0.992189 
H  0.948642   -0.680624   -1.208525 
13 
Vibrational Frequency frame 
C  -0.013094   -0.303785   -0.817001 
O  -1.101891   -0.454368   -1.501559 
F  1.085251   -0.018643   1.242087 
F  -1.075070   0.110788   1.273334 
H  0.980659   2.927677   -1.729526 
C  1.230967   1.891570   -1.512204 
H  1.544389   1.369733   -2.427644 
H  2.019792   1.849674   -0.754258 
O  0.053381   1.272317   -0.959542 
H  -0.818079   0.913501   -1.582689 
C  -0.049333   -0.503632   0.700954 
F  -0.113477   -1.803944   0.993727 
H  0.947472   -0.681916   -1.209684 
13 
Vibrational Frequency frame 
C  -0.014330   -0.305294   -0.818023 
O  -1.103106   -0.456404   -1.502405 
F  1.086654   -0.018311   1.238779 
F  -1.073665   0.112675   1.273166 
H  0.980876   2.928772   -1.723943 
C  1.232250   1.893059   -1.505811 
H  1.553355   1.372381   -2.420338 
H  2.016749   1.852612   -0.742131 
O  0.051567   1.270670   -0.961089 
H  -0.818220   0.911428   -1.586500 
C  -0.049297   -0.503524   0.700158 
F  -0.114043   -1.803293   0.995264 
H  0.946301   -0.683209   -1.210842 
13 
Vibrational Frequency frame 
C  -0.015567   -0.306804   -0.819044 
O  -1.104321   -0.458440   -1.503252 
F  1.088057   -0.017979   1.235472 
F  -1.072261   0.114562   1.272999 
H  0.981094   2.929867   -1.718361 
C  1.233534   1.894548   -1.499418 
H  1.562322   1.375029   -2.413032 
H  2.013705   1.855550   -0.730004 
O  0.049752   1.269022   -0.962637 
H  -0.818361   0.909355   -1.590312 
C  -0.049262   -0.503415   0.699361 
F  -0.114608   -1.802642   0.996801 
H  0.945131   -0.684501   -1.212001 
13 
Vibrational Frequency frame 
C  -0.016804   -0.308313   -0.820066 
O  -1.105536   -0.460476   -1.504099 
F  1.089460   -0.017647   1.232165 
F  -1.070856   0.116449   1.272831 
H  0.981311   2.930962   -1.712778 
C  1.234817   1.896037   -1.493025 
H  1.571289   1.377677   -2.405726 
H  2.010662   1.858488   -0.717877 
O  0.047938   1.267375   -0.964184 
H  -0.818502   0.907282   -1.594123 
C  -0.049226   -0.503307   0.698565 
F  -0.115174   -1.801992   0.998339 
H  0.943960   -0.685793   -1.213160 
13 
Vibrational Frequency frame 
C  -0.018041   -0.309822   -0.821087 
O  -1.106751   -0.462512   -1.504946 
F  1.090863   -0.017315   1.228858 
F  -1.069452   0.118336   1.272663 
H  0.981529   2.932057   -1.707195 
C  1.236101   1.897526   -1.486631 
H  1.580255   1.380325   -2.398420 
H  2.007619   1.861426   -0.705750 
O  0.046124   1.265727   -0.965732 
H  -0.818643   0.905209   -1.597934 
C  -0.049190   -0.503199   0.697769 
F  -0.115740   -1.801341   0.999876 
H  0.942790   -0.687085   -1.214318 
13 
Vibrational Frequency frame 
C  -0.019277   -0.311331   -0.822109 
O  -1.107966   -0.464548   -1.505793 
F  1.092266   -0.016983   1.225551 
F  -1.068048   0.120223   1.272495 
H  0.981746   2.933152   -1.701612 
C  1.237384   1.899015   -1.480238 
H  1.589222   1.382973   -2.391114 
H  2.004576   1.864363   -0.693623 
O  0.044310   1.264080   -0.967279 
H  -0.818784   0.903136   -1.601745 
C  -0.049154   -0.503091   0.696972 
F  -0.116305   -1.800690   1.001413 
H  0.941619   -0.688377   -1.215477 
13 
Vibrational Frequency frame 
C  -0.020514   -0.312841   -0.823130 
O  -1.109181   -0.466584   -1.506640 
F  1.093669   -0.016651   1.222243 
F  -1.066643   0.122110   1.272327 
H  0.981964   2.934247   -1.696030 
C  1.238668   1.900504   -1.473845 
H  1.598189   1.385621   -2.383807 
H  2.001533   1.867301   -0.681497 
O  0.042496   1.262432   -0.968826 
H  -0.818925   0.901063   -1.605557 
C  -0.049118   -0.502983   0.696176 
F  -0.116871   -1.800040   1.002950 
H  0.940449   -0.689669   -1.216636 
13 
Vibrational Frequency frame 
C  -0.021751   -0.314350   -0.824152 
O  -1.110396   -0.468620   -1.507486 
F  1.095072   -0.016319   1.218936 
F  -1.065239   0.123997   1.272160 
H  0.982182   2.935342   -1.690447 
C  1.239952   1.901993   -1.467452 
H  1.607156   1.388270   -2.376501 
H  1.998490   1.870239   -0.669370 
O  0.040682   1.260785   -0.970374 
H  -0.819066   0.898990   -1.609368 
C  -0.049082   -0.502875   0.695380 
F  -0.117437   -1.799389   1.004488 
H  0.939278   -0.690961   -1.217794 
13 
Vibrational Frequency frame 
C  -0.022987   -0.315859   -0.825173 
O  -1.111611   -0.470656   -1.508333 
F  1.096475   -0.015987   1.215629 
F  -1.063834   0.125884   1.271992 
H  0.982399   2.936437   -1.684864 
C  1.241235   1.903482   -1.461058 
H  1.616122   1.390918   -2.369195 
H  1.995447   1.873177   -0.657243 
O  0.038868   1.259137   -0.971921 
H  -0.819207   0.896917   -1.613179 
C  -0.049046   -0.502767   0.694584 
F  -0.118002   -1.798738   1.006025 
H  0.938108   -0.692253   -1.218953 
13 
Vibrational Frequency frame 
C  -0.024224   -0.317368   -0.826195 
O  -1.112826   -0.472693   -1.509180 
F  1.097878   -0.015655   1.212322 
F  -1.062430   0.127772   1.271824 
H  0.982617   2.937532   -1.679282 
C  1.242519   1.904972   -1.454665 
H  1.625089   1.393566   -2.361889 
H  1.992404   1.876115   -0.645116 
O  0.037054   1.257490   -0.973468 
H  -0.819348   0.894844   -1.616990 
C  -0.049010   -0.502659   0.693787 
F  -0.118568   -1.798088   1.007562 
H  0.936937   -0.693545   -1.220112 
13 
Vibrational Frequency frame 
C  -0.022987   -0.315859   -0.825173 
O  -1.111611   -0.470656   -1.508333 
F  1.096475   -0.015987   1.215629 
F  -1.063834   0.125884   1.271992 
H  0.982399   2.936437   -1.684864 
C  1.241235   1.903482   -1.461058 
H  1.616122   1.390918   -2.369195 
H  1.995447   1.873177   -0.657243 
O  0.038868   1.259137   -0.971921 
H  -0.819207   0.896917   -1.613179 
C  -0.049046   -0.502767   0.694584 
F  -0.118002   -1.798738   1.006025 
H  0.938108   -0.692253   -1.218953 
13 
Vibrational Frequency frame 
C  -0.021751   -0.314350   -0.824152 
O  -1.110396   -0.468620   -1.507486 
F  1.095072   -0.016319   1.218936 
F  -1.065239   0.123997   1.272160 
H  0.982182   2.935342   -1.690447 
C  1.239952   1.901993   -1.467452 
H  1.607156   1.388270   -2.376501 
H  1.998490   1.870239   -0.669370 
O  0.040682   1.260785   -0.970374 
H  -0.819066   0.898990   -1.609368 
C  -0.049082   -0.502875   0.695380 
F  -0.117437   -1.799389   1.004488 
H  0.939278   -0.690961   -1.217794 
13 
Vibrational Frequency frame 
C  -0.020514   -0.312841   -0.823130 
O  -1.109181   -0.466584   -1.506640 
F  1.093669   -0.016651   1.222243 
F  -1.066643   0.122110   1.272327 
H  0.981964   2.934247   -1.696030 
C  1.238668   1.900504   -1.473845 
H  1.598189   1.385621   -2.383807 
H  2.001533   1.867301   -0.681497 
O  0.042496   1.262432   -0.968826 
H  -0.818925   0.901063   -1.605557 
C  -0.049118   -0.502983   0.696176 
F  -0.116871   -1.800040   1.002950 
H  0.940449   -0.689669   -1.216636 
13 
Vibrational Frequency frame 
C  -0.019277   -0.311331   -0.822109 
O  -1.107966   -0.464548   -1.505793 
F  1.092266   -0.016983   1.225551 
F  -1.068048   0.120223   1.272495 
H  0.981746   2.933152   -1.701612 
C  1.237384   1.899015   -1.480238 
H  1.589222   1.382973   -2.391114 
H  2.004576   1.864363   -0.693623 
O  0.044310   1.264080   -0.967279 
H  -0.818784   0.903136   -1.601745 
C  -0.049154   -0.503091   0.696972 
F  -0.116305   -1.800690   1.001413 
H  0.941619   -0.688377   -1.215477 
13 
Vibrational Frequency frame 
C  -0.018041   -0.309822   -0.821087 
O  -1.106751   -0.462512   -1.504946 
F  1.090863   -0.017315   1.228858 
F  -1.069452   0.118336   1.272663 
H  0.981529   2.932057   -1.707195 
C  1.236101   1.897526   -1.486631 
H  1.580255   1.380325   -2.398420 
H  2.007619   1.861426   -0.705750 
O  0.046124   1.265727   -0.965732 
H  -0.818643   0.905209   -1.597934 
C  -0.049190   -0.503199   0.697769 
F  -0.115740   -1.801341   0.999876 
H  0.942790   -0.687085   -1.214318 
13 
Vibrational Frequency frame 
C  -0.016804   -0.308313   -0.820066 
O  -1.105536   -0.460476   -1.504099 
F  1.089460   -0.017647   1.232165 
F  -1.070856   0.116449   1.272831 
H  0.981311   2.930962   -1.712778 
C  1.234817   1.896037   -1.493025 
H  1.571289   1.377677   -2.405726 
H  2.010662   1.858488   -0.717877 
O  0.047938   1.267375   -0.964184 
H  -0.818502   0.907282   -1.594123 
C  -0.049226   -0.503307   0.698565 
F  -0.115174   -1.801992   0.998339 
H  0.943960   -0.685793   -1.213160 
13 
Vibrational Frequency frame 
C  -0.015567   -0.306804   -0.819044 
O  -1.104321   -0.458440   -1.503252 
F  1.088057   -0.017979   1.235472 
F  -1.072261   0.114562   1.272999 
H  0.981094   2.929867   -1.718361 
C  1.233534   1.894548   -1.499418 
H  1.562322   1.375029   -2.413032 
H  2.013705   1.855550   -0.730004 
O  0.049752   1.269022   -0.962637 
H  -0.818361   0.909355   -1.590312 
C  -0.049262   -0.503415   0.699361 
F  -0.114608   -1.802642   0.996801 
H  0.945131   -0.684501   -1.212001 
13 
Vibrational Frequency frame 
C  -0.014330   -0.305294   -0.818023 
O  -1.103106   -0.456404   -1.502405 
F  1.086654   -0.018311   1.238779 
F  -1.073665   0.112675   1.273166 
H  0.980876   2.928772   -1.723943 
C  1.232250   1.893059   -1.505811 
H  1.553355   1.372381   -2.420338 
H  2.016749   1.852612   -0.742131 
O  0.051567   1.270670   -0.961089 
H  -0.818220   0.911428   -1.586500 
C  -0.049297   -0.503524   0.700158 
F  -0.114043   -1.803293   0.995264 
H  0.946301   -0.683209   -1.210842 
13 
Vibrational Frequency frame 
C  -0.013094   -0.303785   -0.817001 
O  -1.101891   -0.454368   -1.501559 
F  1.085251   -0.018643   1.242087 
F  -1.075070   0.110788   1.273334 
H  0.980659   2.927677   -1.729526 
C  1.230967   1.891570   -1.512204 
H  1.544389   1.369733   -2.427644 
H  2.019792   1.849674   -0.754258 
O  0.053381   1.272317   -0.959542 
H  -0.818079   0.913501   -1.582689 
C  -0.049333   -0.503632   0.700954 
F  -0.113477   -1.803944   0.993727 
H  0.947472   -0.681916   -1.209684 
13 
Vibrational Frequency frame 
C  -0.011857   -0.302276   -0.815980 
O  -1.100676   -0.452332   -1.500712 
F  1.083848   -0.018976   1.245394 
F  -1.076474   0.108901   1.273502 
H  0.980441   2.926582   -1.735109 
C  1.229683   1.890081   -1.518598 
H  1.535422   1.367085   -2.434950 
H  2.022835   1.846737   -0.766385 
O  0.055195   1.273965   -0.957995 
H  -0.817938   0.915575   -1.578878 
C  -0.049369   -0.503740   0.701750 
F  -0.112911   -1.804594   0.992189 
H  0.948642   -0.680624   -1.208525 
13 
Vibrational Frequency frame 
C  -0.010620   -0.300767   -0.814958 
O  -1.099461   -0.450295   -1.499865 
F  1.082445   -0.019308   1.248701 
F  -1.077878   0.107014   1.273670 
H  0.980224   2.925487   -1.740691 
C  1.228399   1.888592   -1.524991 
H  1.526455   1.364437   -2.442256 
H  2.025878   1.843799   -0.778512 
O  0.057009   1.275612   -0.956447 
H  -0.817797   0.917648   -1.575067 
C  -0.049405   -0.503848   0.702546 
F  -0.112346   -1.805245   0.990652 
H  0.949813   -0.679332   -1.207366 
13 
Vibrational Frequency frame 
C  -0.009384   -0.299257   -0.813937 
O  -1.098246   -0.448259   -1.499018 
F  1.081042   -0.019640   1.252008 
F  -1.079283   0.105127   1.273837 
H  0.980006   2.924392   -1.746274 
C  1.227116   1.887102   -1.531384 
H  1.517488   1.361789   -2.449563 
H  2.028921   1.840861   -0.790639 
O  0.058823   1.277260   -0.954900 
H  -0.817657   0.919721   -1.571255 
C  -0.049441   -0.503956   0.703343 
F  -0.111780   -1.805895   0.989115 
H  0.950983   -0.678040   -1.206208 
13 
Vibrational Frequency frame 
C  -0.008147   -0.297748   -0.812915 
O  -1.097030   -0.446223   -1.498171 
F  1.079639   -0.019972   1.255316 
F  -1.080687   0.103239   1.274005 
H  0.979789   2.923297   -1.751857 
C  1.225832   1.885613   -1.537777 
H  1.508522   1.359141   -2.456869 
H  2.031964   1.837923   -0.802766 
O  0.060637   1.278907   -0.953352 
H  -0.817516   0.921794   -1.567444 
C  -0.049477   -0.504064   0.704139 
F  -0.111214   -1.806546   0.987577 
H  0.952154   -0.676748   -1.205049 
13 
Vibrational Frequency frame 
C  -0.006910   -0.296239   -0.811894 
O  -1.095815   -0.444187   -1.497324 
F  1.078236   -0.020304   1.258623 
F  -1.082092   0.101352   1.274173 
H  0.979571   2.922202   -1.757440 
C  1.224549   1.884124   -1.544171 
H  1.499555   1.356492   -2.464175 
H  2.035007   1.834985   -0.814893 
O  0.062451   1.280555   -0.951805 
H  -0.817375   0.923867   -1.563633 
C  -0.049513   -0.504172   0.704935 
F  -0.110649   -1.807197   0.986040 
H  0.953324   -0.675456   -1.203890 
13 
Vibrational Frequency frame 
C  -0.005674   -0.294730   -0.810872 
O  -1.094600   -0.442151   -1.496478 
F  1.076833   -0.020636   1.261930 
F  -1.083496   0.099465   1.274341 
H  0.979354   2.921107   -1.763022 
C  1.223265   1.882635   -1.550564 
H  1.490588   1.353844   -2.471481 
H  2.038050   1.832048   -0.827020 
O  0.064265   1.282202   -0.950258 
H  -0.817234   0.925940   -1.559822 
C  -0.049549   -0.504280   0.705732 
F  -0.110083   -1.807847   0.984503 
H  0.954495   -0.674164   -1.202732 
13 
Vibrational Frequency frame 
C  -0.004437   -0.293220   -0.809851 
O  -1.093385   -0.440115   -1.495631 
F  1.075430   -0.020968   1.265237 
F  -1.084900   0.097578   1.274509 
H  0.979136   2.920012   -1.768605 
C  1.221981   1.881146   -1.556957 
H  1.481621   1.351196   -2.478787 
H  2.041093   1.829110   -0.839147 
O  0.066079   1.283850   -0.948710 
H  -0.817093   0.928013   -1.556010 
C  -0.049585   -0.504389   0.706528 
F  -0.109517   -1.808498   0.982965 
H  0.955665   -0.672872   -1.201573 
13 
Vibrational Frequency frame 
C  -0.003200   -0.291711   -0.808829 
O  -1.092170   -0.438079   -1.494784 
F  1.074027   -0.021300   1.268545 
F  -1.086305   0.095691   1.274676 
H  0.978919   2.918917   -1.774188 
C  1.220698   1.879657   -1.563350 
H  1.472655   1.348548   -2.486093 
H  2.044136   1.826172   -0.851273 
O  0.067893   1.285497   -0.947163 
H  -0.816952   0.930086   -1.552199 
C  -0.049621   -0.504497   0.707324 
F  -0.108951   -1.809149   0.981428 
H  0.956835   -0.671580   -1.200414 
13 
Vibrational Frequency frame 
C  -0.001963   -0.290202   -0.807808 
O  -1.090955   -0.436043   -1.493937 
F  1.072624   -0.021632   1.271852 
F  -1.087709   0.093804   1.274844 
H  0.978701   2.917822   -1.779770 
C  1.219414   1.878168   -1.569744 
H  1.463688   1.345900   -2.493399 
H  2.047179   1.823234   -0.863400 
O  0.069707   1.287145   -0.945615 
H  -0.816811   0.932159   -1.548388 
C  -0.049657   -0.504605   0.708120 
F  -0.108386   -1.809799   0.979891 
H  0.958006   -0.670287   -1.199256 
13 
Vibrational Frequency frame 
C  -0.000727   -0.288693   -0.806786 
O  -1.089740   -0.434007   -1.493090 
F  1.071221   -0.021964   1.275159 
F  -1.089113   0.091917   1.275012 
H  0.978484   2.916727   -1.785353 
C  1.218131   1.876679   -1.576137 
H  1.454721   1.343252   -2.500706 
H  2.050222   1.820296   -0.875527 
O  0.071521   1.288792   -0.944068 
H  -0.816670   0.934232   -1.544577 
C  -0.049692   -0.504713   0.708917 
F  -0.107820   -1.810450   0.978354 
H  0.959176   -0.668995   -1.198097 
13 
Vibrational Frequency frame 
C  0.000510   -0.287183   -0.805765 
O  -1.088525   -0.431971   -1.492244 
F  1.069818   -0.022296   1.278466 
F  -1.090518   0.090030   1.275180 
H  0.978266   2.915632   -1.790936 
C  1.216847   1.875190   -1.582530 
H  1.445754   1.340604   -2.508012 
H  2.053265   1.817359   -0.887654 
O  0.073335   1.290440   -0.942521 
H  -0.816529   0.936305   -1.540765 
C  -0.049728   -0.504821   0.709713 
F  -0.107254   -1.811101   0.976816 
H  0.960347   -0.667703   -1.196938 
13 
Vibrational Frequency frame 
C  0.001747   -0.285674   -0.804743 
O  -1.087310   -0.429934   -1.491397 
F  1.068415   -0.022628   1.281774 
F  -1.091922   0.088143   1.275347 
H  0.978049   2.914538   -1.796518 
C  1.215564   1.873701   -1.588924 
H  1.436788   1.337956   -2.515318 
H  2.056308   1.814421   -0.899781 
O  0.075149   1.292087   -0.940973 
H  -0.816388   0.938378   -1.536954 
C  -0.049764   -0.504929   0.710509 
F  -0.106689   -1.811751   0.975279 
H  0.961517   -0.666411   -1.195780 
13 
Vibrational Frequency frame 
C  0.002983   -0.284165   -0.803722 
O  -1.086095   -0.427898   -1.490550 
F  1.067012   -0.022960   1.285081 
F  -1.093327   0.086256   1.275515 
H  0.977831   2.913443   -1.802101 
C  1.214280   1.872212   -1.595317 
H  1.427821   1.335308   -2.522624 
H  2.059351   1.811483   -0.911908 
O  0.076963   1.293735   -0.939426 
H  -0.816247   0.940451   -1.533143 
C  -0.049800   -0.505037   0.711306 
F  -0.106123   -1.812402   0.973742 
H  0.962688   -0.665119   -1.194621 
13 
Vibrational Frequency frame 
C  0.004220   -0.282656   -0.802701 
O  -1.084880   -0.425862   -1.489703 
F  1.065609   -0.023292   1.288388 
F  -1.094731   0.084369   1.275683 
H  0.977614   2.912348   -1.807684 
C  1.212996   1.870722   -1.601710 
H  1.418854   1.332660   -2.529930 
H  2.062394   1.808545   -0.924035 
O  0.078777   1.295382   -0.937878 
H  -0.816106   0.942524   -1.529331 
C  -0.049836   -0.505145   0.712102 
F  -0.105557   -1.813053   0.972204 
H  0.963858   -0.663827   -1.193463 
13 
Vibrational Frequency frame 
C  0.005457   -0.281146   -0.801679 
O  -1.083665   -0.423826   -1.488856 
F  1.064206   -0.023624   1.291695 
F  -1.096135   0.082482   1.275851 
H  0.977396   2.911253   -1.813267 
C  1.211713   1.869233   -1.608103 
H  1.409887   1.330012   -2.537236 
H  2.065437   1.805607   -0.936162 
O  0.080591   1.297030   -0.936331 
H  -0.815965   0.944597   -1.525520 
C  -0.049872   -0.505254   0.712898 
F  -0.104992   -1.813703   0.970667 
H  0.965029   -0.662535   -1.192304 
