13 
Vibrational Frequency frame 
C  0.006694   -0.279637   -0.800658 
O  -1.082449   -0.421790   -1.488009 
F  1.062803   -0.023956   1.295002 
F  -1.097540   0.080594   1.276019 
H  0.977178   2.910158   -1.818849 
C  1.210429   1.867744   -1.614497 
H  1.400921   1.327364   -2.544542 
H  2.068480   1.802669   -0.948289 
O  0.082405   1.298677   -0.934784 
H  -0.815825   0.946670   -1.521709 
C  -0.049908   -0.505362   0.713694 
F  -0.104426   -1.814354   0.969130 
H  0.966199   -0.661243   -1.191145 
13 
Vibrational Frequency frame 
C  0.006694   -0.279637   -0.800658 
O  -1.082449   -0.421790   -1.488009 
F  1.062803   -0.023956   1.295002 
F  -1.097540   0.080594   1.276019 
H  0.977178   2.910158   -1.818849 
C  1.210429   1.867744   -1.614497 
H  1.400921   1.327364   -2.544542 
H  2.068480   1.802669   -0.948289 
O  0.082405   1.298677   -0.934784 
H  -0.815825   0.946670   -1.521709 
C  -0.049908   -0.505362   0.713694 
F  -0.104426   -1.814354   0.969130 
H  0.966199   -0.661243   -1.191145 
13 
Vibrational Frequency frame 
C  0.002810   -0.282230   -0.804768 
O  -1.085394   -0.419008   -1.496611 
F  1.060467   -0.025753   1.303124 
F  -1.094124   0.085160   1.277801 
H  0.971306   2.909108   -1.817161 
C  1.208609   1.867382   -1.613892 
H  1.400803   1.328563   -2.544480 
H  2.066875   1.805000   -0.947759 
O  0.082619   1.294511   -0.934980 
H  -0.815918   0.950485   -1.522542 
C  -0.049346   -0.504898   0.713985 
F  -0.099256   -1.814340   0.968791 
H  0.960608   -0.668349   -1.194981 
13 
Vibrational Frequency frame 
C  -0.001073   -0.284823   -0.808878 
O  -1.088338   -0.416226   -1.505213 
F  1.058132   -0.027550   1.311246 
F  -1.090707   0.089725   1.279583 
H  0.965434   2.908057   -1.815472 
C  1.206789   1.867020   -1.613287 
H  1.400685   1.329762   -2.544417 
H  2.065270   1.807330   -0.947229 
O  0.082832   1.290345   -0.935177 
H  -0.816011   0.954299   -1.523374 
C  -0.048784   -0.504435   0.714276 
F  -0.094086   -1.814326   0.968452 
H  0.955016   -0.675455   -1.198816 
13 
Vibrational Frequency frame 
C  -0.004956   -0.287416   -0.812988 
O  -1.091282   -0.413445   -1.513815 
F  1.055796   -0.029347   1.319367 
F  -1.087291   0.094291   1.281365 
H  0.959561   2.907007   -1.813784 
C  1.204969   1.866658   -1.612682 
H  1.400567   1.330961   -2.544354 
H  2.063665   1.809660   -0.946699 
O  0.083046   1.286178   -0.935374 
H  -0.816104   0.958114   -1.524207 
C  -0.048222   -0.503971   0.714567 
F  -0.088916   -1.814313   0.968113 
H  0.949424   -0.682561   -1.202652 
13 
Vibrational Frequency frame 
C  -0.008839   -0.290009   -0.817098 
O  -1.094226   -0.410663   -1.522417 
F  1.053461   -0.031143   1.327489 
F  -1.083875   0.098856   1.283147 
H  0.953689   2.905957   -1.812096 
C  1.203150   1.866295   -1.612077 
H  1.400449   1.332160   -2.544292 
H  2.062060   1.811990   -0.946170 
O  0.083260   1.282012   -0.935571 
H  -0.816197   0.961928   -1.525039 
C  -0.047660   -0.503508   0.714858 
F  -0.083746   -1.814299   0.967773 
H  0.943833   -0.689668   -1.206487 
13 
Vibrational Frequency frame 
C  -0.012722   -0.292602   -0.821208 
O  -1.097170   -0.407881   -1.531019 
F  1.051125   -0.032940   1.335610 
F  -1.080459   0.103421   1.284929 
H  0.947817   2.904907   -1.810407 
C  1.201330   1.865933   -1.611473 
H  1.400331   1.333359   -2.544229 
H  2.060455   1.814320   -0.945640 
O  0.083473   1.277846   -0.935767 
H  -0.816290   0.965742   -1.525872 
C  -0.047099   -0.503045   0.715149 
F  -0.078576   -1.814285   0.967434 
H  0.938241   -0.696774   -1.210323 
13 
Vibrational Frequency frame 
C  -0.016605   -0.295194   -0.825318 
O  -1.100114   -0.405099   -1.539621 
F  1.048790   -0.034737   1.343732 
F  -1.077043   0.107987   1.286711 
H  0.941945   2.903857   -1.808719 
C  1.199510   1.865571   -1.610868 
H  1.400213   1.334559   -2.544166 
H  2.058850   1.816650   -0.945110 
O  0.083687   1.273680   -0.935964 
H  -0.816383   0.969557   -1.526705 
C  -0.046537   -0.502581   0.715441 
F  -0.073406   -1.814271   0.967095 
H  0.932650   -0.703880   -1.214159 
13 
Vibrational Frequency frame 
C  -0.020488   -0.297787   -0.829428 
O  -1.103058   -0.402317   -1.548223 
F  1.046454   -0.036534   1.351854 
F  -1.073627   0.112552   1.288493 
H  0.936072   2.902807   -1.807030 
C  1.197690   1.865209   -1.610263 
H  1.400096   1.335758   -2.544104 
H  2.057244   1.818981   -0.944580 
O  0.083900   1.269514   -0.936161 
H  -0.816476   0.973371   -1.527537 
C  -0.045975   -0.502118   0.715732 
F  -0.068236   -1.814257   0.966756 
H  0.927058   -0.710986   -1.217994 
13 
Vibrational Frequency frame 
C  -0.024371   -0.300380   -0.833538 
O  -1.106002   -0.399535   -1.556825 
F  1.044119   -0.038330   1.359975 
F  -1.070210   0.117117   1.290275 
H  0.930200   2.901756   -1.805342 
C  1.195870   1.864847   -1.609658 
H  1.399978   1.336957   -2.544041 
H  2.055639   1.821311   -0.944051 
O  0.084114   1.265347   -0.936358 
H  -0.816569   0.977186   -1.528370 
C  -0.045413   -0.501654   0.716023 
F  -0.063066   -1.814244   0.966417 
H  0.921466   -0.718093   -1.221830 
13 
Vibrational Frequency frame 
C  -0.028255   -0.302973   -0.837649 
O  -1.108946   -0.396753   -1.565427 
F  1.041783   -0.040127   1.368097 
F  -1.066794   0.121683   1.292057 
H  0.924328   2.900706   -1.803653 
C  1.194050   1.864485   -1.609053 
H  1.399860   1.338156   -2.543978 
H  2.054034   1.823641   -0.943521 
O  0.084327   1.261181   -0.936554 
H  -0.816662   0.981000   -1.529202 
C  -0.044851   -0.501191   0.716314 
F  -0.057896   -1.814230   0.966078 
H  0.915875   -0.725199   -1.225665 
13 
Vibrational Frequency frame 
C  -0.032138   -0.305566   -0.841759 
O  -1.111890   -0.393972   -1.574029 
F  1.039448   -0.041924   1.376218 
F  -1.063378   0.126248   1.293840 
H  0.918455   2.899656   -1.801965 
C  1.192230   1.864122   -1.608449 
H  1.399742   1.339355   -2.543916 
H  2.052429   1.825971   -0.942991 
O  0.084541   1.257015   -0.936751 
H  -0.816756   0.984814   -1.530035 
C  -0.044289   -0.500727   0.716605 
F  -0.052726   -1.814216   0.965739 
H  0.910283   -0.732305   -1.229501 
13 
Vibrational Frequency frame 
C  -0.036021   -0.308159   -0.845869 
O  -1.114834   -0.391190   -1.582631 
F  1.037112   -0.043721   1.384340 
F  -1.059962   0.130814   1.295622 
H  0.912583   2.898606   -1.800276 
C  1.190410   1.863760   -1.607844 
H  1.399624   1.340555   -2.543853 
H  2.050824   1.828301   -0.942461 
O  0.084754   1.252849   -0.936948 
H  -0.816849   0.988629   -1.530868 
C  -0.043727   -0.500264   0.716896 
F  -0.047556   -1.814202   0.965400 
H  0.904691   -0.739411   -1.233336 
13 
Vibrational Frequency frame 
C  -0.039904   -0.310752   -0.849979 
O  -1.117778   -0.388408   -1.591233 
F  1.034777   -0.045517   1.392462 
F  -1.056546   0.135379   1.297404 
H  0.906711   2.897556   -1.798588 
C  1.188590   1.863398   -1.607239 
H  1.399506   1.341754   -2.543790 
H  2.049219   1.830631   -0.941931 
O  0.084968   1.248683   -0.937145 
H  -0.816942   0.992443   -1.531700 
C  -0.043165   -0.499800   0.717187 
F  -0.042386   -1.814189   0.965061 
H  0.899100   -0.746518   -1.237172 
13 
Vibrational Frequency frame 
C  -0.043787   -0.313345   -0.854089 
O  -1.120723   -0.385626   -1.599835 
F  1.032441   -0.047314   1.400583 
F  -1.053129   0.139944   1.299186 
H  0.900838   2.896506   -1.796900 
C  1.186770   1.863036   -1.606634 
H  1.399388   1.342953   -2.543728 
H  2.047614   1.832962   -0.941402 
O  0.085181   1.244516   -0.937341 
H  -0.817035   0.996258   -1.532533 
C  -0.042603   -0.499337   0.717478 
F  -0.037216   -1.814175   0.964722 
H  0.893508   -0.753624   -1.241007 
13 
Vibrational Frequency frame 
C  -0.047670   -0.315937   -0.858199 
O  -1.123667   -0.382844   -1.608437 
F  1.030106   -0.049111   1.408705 
F  -1.049713   0.144510   1.300968 
H  0.894966   2.895456   -1.795211 
C  1.184951   1.862674   -1.606030 
H  1.399270   1.344152   -2.543665 
H  2.046008   1.835292   -0.940872 
O  0.085395   1.240350   -0.937538 
H  -0.817128   1.000072   -1.533365 
C  -0.042042   -0.498874   0.717769 
F  -0.032046   -1.814161   0.964383 
H  0.887917   -0.760730   -1.244843 
13 
Vibrational Frequency frame 
C  -0.051553   -0.318530   -0.862309 
O  -1.126611   -0.380062   -1.617039 
F  1.027770   -0.050907   1.416826 
F  -1.046297   0.149075   1.302750 
H  0.889094   2.894405   -1.793523 
C  1.183131   1.862311   -1.605425 
H  1.399152   1.345351   -2.543602 
H  2.044403   1.837622   -0.940342 
O  0.085608   1.236184   -0.937735 
H  -0.817221   1.003886   -1.534198 
C  -0.041480   -0.498410   0.718060 
F  -0.026876   -1.814147   0.964044 
H  0.882325   -0.767836   -1.248679 
13 
Vibrational Frequency frame 
C  -0.055437   -0.321123   -0.866419 
O  -1.129555   -0.377280   -1.625641 
F  1.025435   -0.052704   1.424948 
F  -1.042881   0.153640   1.304532 
H  0.883221   2.893355   -1.791834 
C  1.181311   1.861949   -1.604820 
H  1.399035   1.346550   -2.543540 
H  2.042798   1.839952   -0.939812 
O  0.085822   1.232018   -0.937932 
H  -0.817314   1.007701   -1.535031 
C  -0.040918   -0.497947   0.718351 
F  -0.021706   -1.814134   0.963705 
H  0.876733   -0.774942   -1.252514 
13 
Vibrational Frequency frame 
C  -0.059320   -0.323716   -0.870529 
O  -1.132499   -0.374499   -1.634243 
F  1.023099   -0.054501   1.433070 
F  -1.039465   0.158206   1.306314 
H  0.877349   2.892305   -1.790146 
C  1.179491   1.861587   -1.604215 
H  1.398917   1.347750   -2.543477 
H  2.041193   1.842282   -0.939283 
O  0.086035   1.227852   -0.938129 
H  -0.817407   1.011515   -1.535863 
C  -0.040356   -0.497483   0.718642 
F  -0.016536   -1.814120   0.963366 
H  0.871142   -0.782049   -1.256350 
13 
Vibrational Frequency frame 
C  -0.063203   -0.326309   -0.874639 
O  -1.135443   -0.371717   -1.642845 
F  1.020764   -0.056298   1.441191 
F  -1.036048   0.162771   1.308096 
H  0.871477   2.891255   -1.788457 
C  1.177671   1.861225   -1.603610 
H  1.398799   1.348949   -2.543414 
H  2.039588   1.844612   -0.938753 
O  0.086249   1.223685   -0.938325 
H  -0.817500   1.015330   -1.536696 
C  -0.039794   -0.497020   0.718933 
F  -0.011367   -1.814106   0.963027 
H  0.865550   -0.789155   -1.260185 
13 
Vibrational Frequency frame 
C  -0.067086   -0.328902   -0.878750 
O  -1.138387   -0.368935   -1.651447 
F  1.018428   -0.058094   1.449313 
F  -1.032632   0.167337   1.309878 
H  0.865604   2.890205   -1.786769 
C  1.175851   1.860863   -1.603006 
H  1.398681   1.350148   -2.543352 
H  2.037983   1.846943   -0.938223 
O  0.086462   1.219519   -0.938522 
H  -0.817594   1.019144   -1.537528 
C  -0.039232   -0.496556   0.719224 
F  -0.006197   -1.814092   0.962688 
H  0.859958   -0.796261   -1.264021 
13 
Vibrational Frequency frame 
C  -0.070969   -0.331495   -0.882860 
O  -1.141331   -0.366153   -1.660049 
F  1.016093   -0.059891   1.457434 
F  -1.029216   0.171902   1.311661 
H  0.859732   2.889155   -1.785081 
C  1.174031   1.860500   -1.602401 
H  1.398563   1.351347   -2.543289 
H  2.036378   1.849273   -0.937693 
O  0.086676   1.215353   -0.938719 
H  -0.817687   1.022959   -1.538361 
C  -0.038670   -0.496093   0.719515 
F  -0.001027   -1.814079   0.962349 
H  0.854367   -0.803367   -1.267856 
13 
Vibrational Frequency frame 
C  -0.074852   -0.334088   -0.886970 
O  -1.144275   -0.363371   -1.668651 
F  1.013757   -0.061688   1.465556 
F  -1.025800   0.176467   1.313443 
H  0.853860   2.888104   -1.783392 
C  1.172211   1.860138   -1.601796 
H  1.398445   1.352546   -2.543226 
H  2.034772   1.851603   -0.937163 
O  0.086889   1.211187   -0.938916 
H  -0.817780   1.026773   -1.539194 
C  -0.038108   -0.495630   0.719806 
F  0.004143   -1.814065   0.962010 
H  0.848775   -0.810474   -1.271692 
13 
Vibrational Frequency frame 
C  -0.078735   -0.336681   -0.891080 
O  -1.147219   -0.360589   -1.677253 
F  1.011422   -0.063485   1.473678 
F  -1.022384   0.181033   1.315225 
H  0.847987   2.887054   -1.781704 
C  1.170391   1.859776   -1.601191 
H  1.398327   1.353746   -2.543164 
H  2.033167   1.853933   -0.936634 
O  0.087103   1.207021   -0.939112 
H  -0.817873   1.030587   -1.540026 
C  -0.037547   -0.495166   0.720097 
F  0.009313   -1.814051   0.961671 
H  0.843184   -0.817580   -1.275527 
13 
Vibrational Frequency frame 
C  -0.082618   -0.339273   -0.895190 
O  -1.150163   -0.357807   -1.685855 
F  1.009086   -0.065281   1.481799 
F  -1.018967   0.185598   1.317007 
H  0.842115   2.886004   -1.780015 
C  1.168571   1.859414   -1.600587 
H  1.398209   1.354945   -2.543101 
H  2.031562   1.856263   -0.936104 
O  0.087317   1.202855   -0.939309 
H  -0.817966   1.034402   -1.540859 
C  -0.036985   -0.494703   0.720388 
F  0.014483   -1.814037   0.961332 
H  0.837592   -0.824686   -1.279363 
13 
Vibrational Frequency frame 
C  -0.086502   -0.341866   -0.899300 
O  -1.153107   -0.355026   -1.694457 
F  1.006751   -0.067078   1.489921 
F  -1.015551   0.190163   1.318789 
H  0.836243   2.884954   -1.778327 
C  1.166751   1.859052   -1.599982 
H  1.398091   1.356144   -2.543038 
H  2.029957   1.858593   -0.935574 
O  0.087530   1.198688   -0.939506 
H  -0.818059   1.038216   -1.541691 
C  -0.036423   -0.494239   0.720679 
F  0.019653   -1.814024   0.960993 
H  0.832000   -0.831792   -1.283199 
13 
Vibrational Frequency frame 
C  -0.090385   -0.344459   -0.903410 
O  -1.156052   -0.352244   -1.703059 
F  1.004415   -0.068875   1.498042 
F  -1.012135   0.194729   1.320571 
H  0.830370   2.883904   -1.776638 
C  1.164932   1.858689   -1.599377 
H  1.397974   1.357343   -2.542976 
H  2.028352   1.860924   -0.935044 
O  0.087744   1.194522   -0.939703 
H  -0.818152   1.042031   -1.542524 
C  -0.035861   -0.493776   0.720970 
F  0.024823   -1.814010   0.960653 
H  0.826409   -0.838899   -1.287034 
13 
Vibrational Frequency frame 
C  -0.086502   -0.341866   -0.899300 
O  -1.153107   -0.355026   -1.694457 
F  1.006751   -0.067078   1.489921 
F  -1.015551   0.190163   1.318789 
H  0.836243   2.884954   -1.778327 
C  1.166751   1.859052   -1.599982 
H  1.398091   1.356144   -2.543038 
H  2.029957   1.858593   -0.935574 
O  0.087530   1.198688   -0.939506 
H  -0.818059   1.038216   -1.541691 
C  -0.036423   -0.494239   0.720679 
F  0.019653   -1.814024   0.960993 
H  0.832000   -0.831792   -1.283199 
13 
Vibrational Frequency frame 
C  -0.082618   -0.339273   -0.895190 
O  -1.150163   -0.357807   -1.685855 
F  1.009086   -0.065281   1.481799 
F  -1.018967   0.185598   1.317007 
H  0.842115   2.886004   -1.780015 
C  1.168571   1.859414   -1.600587 
H  1.398209   1.354945   -2.543101 
H  2.031562   1.856263   -0.936104 
O  0.087317   1.202855   -0.939309 
H  -0.817966   1.034402   -1.540859 
C  -0.036985   -0.494703   0.720388 
F  0.014483   -1.814037   0.961332 
H  0.837592   -0.824686   -1.279363 
13 
Vibrational Frequency frame 
C  -0.078735   -0.336681   -0.891080 
O  -1.147219   -0.360589   -1.677253 
F  1.011422   -0.063485   1.473678 
F  -1.022384   0.181033   1.315225 
H  0.847987   2.887054   -1.781704 
C  1.170391   1.859776   -1.601191 
H  1.398327   1.353746   -2.543164 
H  2.033167   1.853933   -0.936634 
O  0.087103   1.207021   -0.939112 
H  -0.817873   1.030587   -1.540026 
C  -0.037547   -0.495166   0.720097 
F  0.009313   -1.814051   0.961671 
H  0.843184   -0.817580   -1.275527 
13 
Vibrational Frequency frame 
C  -0.074852   -0.334088   -0.886970 
O  -1.144275   -0.363371   -1.668651 
F  1.013757   -0.061688   1.465556 
F  -1.025800   0.176467   1.313443 
H  0.853860   2.888104   -1.783392 
C  1.172211   1.860138   -1.601796 
H  1.398445   1.352546   -2.543226 
H  2.034772   1.851603   -0.937163 
O  0.086889   1.211187   -0.938916 
H  -0.817780   1.026773   -1.539194 
C  -0.038108   -0.495630   0.719806 
F  0.004143   -1.814065   0.962010 
H  0.848775   -0.810474   -1.271692 
13 
Vibrational Frequency frame 
C  -0.070969   -0.331495   -0.882860 
O  -1.141331   -0.366153   -1.660049 
F  1.016093   -0.059891   1.457434 
F  -1.029216   0.171902   1.311661 
H  0.859732   2.889155   -1.785081 
C  1.174031   1.860500   -1.602401 
H  1.398563   1.351347   -2.543289 
H  2.036378   1.849273   -0.937693 
O  0.086676   1.215353   -0.938719 
H  -0.817687   1.022959   -1.538361 
C  -0.038670   -0.496093   0.719515 
F  -0.001027   -1.814079   0.962349 
H  0.854367   -0.803367   -1.267856 
13 
Vibrational Frequency frame 
C  -0.067086   -0.328902   -0.878750 
O  -1.138387   -0.368935   -1.651447 
F  1.018428   -0.058094   1.449313 
F  -1.032632   0.167337   1.309878 
H  0.865604   2.890205   -1.786769 
C  1.175851   1.860863   -1.603006 
H  1.398681   1.350148   -2.543352 
H  2.037983   1.846943   -0.938223 
O  0.086462   1.219519   -0.938522 
H  -0.817594   1.019144   -1.537528 
C  -0.039232   -0.496556   0.719224 
F  -0.006197   -1.814092   0.962688 
H  0.859958   -0.796261   -1.264021 
13 
Vibrational Frequency frame 
C  -0.063203   -0.326309   -0.874639 
O  -1.135443   -0.371717   -1.642845 
F  1.020764   -0.056298   1.441191 
F  -1.036048   0.162771   1.308096 
H  0.871477   2.891255   -1.788457 
C  1.177671   1.861225   -1.603610 
H  1.398799   1.348949   -2.543414 
H  2.039588   1.844612   -0.938753 
O  0.086249   1.223685   -0.938325 
H  -0.817500   1.015330   -1.536696 
C  -0.039794   -0.497020   0.718933 
F  -0.011367   -1.814106   0.963027 
H  0.865550   -0.789155   -1.260185 
13 
Vibrational Frequency frame 
C  -0.059320   -0.323716   -0.870529 
O  -1.132499   -0.374499   -1.634243 
F  1.023099   -0.054501   1.433070 
F  -1.039465   0.158206   1.306314 
H  0.877349   2.892305   -1.790146 
C  1.179491   1.861587   -1.604215 
H  1.398917   1.347750   -2.543477 
H  2.041193   1.842282   -0.939283 
O  0.086035   1.227852   -0.938129 
H  -0.817407   1.011515   -1.535863 
C  -0.040356   -0.497483   0.718642 
F  -0.016536   -1.814120   0.963366 
H  0.871142   -0.782049   -1.256350 
13 
Vibrational Frequency frame 
C  -0.055437   -0.321123   -0.866419 
O  -1.129555   -0.377280   -1.625641 
F  1.025435   -0.052704   1.424948 
F  -1.042881   0.153640   1.304532 
H  0.883221   2.893355   -1.791834 
C  1.181311   1.861949   -1.604820 
H  1.399035   1.346550   -2.543540 
H  2.042798   1.839952   -0.939812 
O  0.085822   1.232018   -0.937932 
H  -0.817314   1.007701   -1.535031 
C  -0.040918   -0.497947   0.718351 
F  -0.021706   -1.814134   0.963705 
H  0.876733   -0.774942   -1.252514 
13 
Vibrational Frequency frame 
C  -0.051553   -0.318530   -0.862309 
O  -1.126611   -0.380062   -1.617039 
F  1.027770   -0.050907   1.416826 
F  -1.046297   0.149075   1.302750 
H  0.889094   2.894405   -1.793523 
C  1.183131   1.862311   -1.605425 
H  1.399152   1.345351   -2.543602 
H  2.044403   1.837622   -0.940342 
O  0.085608   1.236184   -0.937735 
H  -0.817221   1.003886   -1.534198 
C  -0.041480   -0.498410   0.718060 
F  -0.026876   -1.814147   0.964044 
H  0.882325   -0.767836   -1.248679 
13 
Vibrational Frequency frame 
C  -0.047670   -0.315937   -0.858199 
O  -1.123667   -0.382844   -1.608437 
F  1.030106   -0.049111   1.408705 
F  -1.049713   0.144510   1.300968 
H  0.894966   2.895456   -1.795211 
C  1.184951   1.862674   -1.606030 
H  1.399270   1.344152   -2.543665 
H  2.046008   1.835292   -0.940872 
O  0.085395   1.240350   -0.937538 
H  -0.817128   1.000072   -1.533365 
C  -0.042042   -0.498874   0.717769 
F  -0.032046   -1.814161   0.964383 
H  0.887917   -0.760730   -1.244843 
13 
Vibrational Frequency frame 
C  -0.043787   -0.313345   -0.854089 
O  -1.120723   -0.385626   -1.599835 
F  1.032441   -0.047314   1.400583 
F  -1.053129   0.139944   1.299186 
H  0.900838   2.896506   -1.796900 
C  1.186770   1.863036   -1.606634 
H  1.399388   1.342953   -2.543728 
H  2.047614   1.832962   -0.941402 
O  0.085181   1.244516   -0.937341 
H  -0.817035   0.996258   -1.532533 
C  -0.042603   -0.499337   0.717478 
F  -0.037216   -1.814175   0.964722 
H  0.893508   -0.753624   -1.241007 
13 
Vibrational Frequency frame 
C  -0.039904   -0.310752   -0.849979 
O  -1.117778   -0.388408   -1.591233 
F  1.034777   -0.045517   1.392462 
F  -1.056546   0.135379   1.297404 
H  0.906711   2.897556   -1.798588 
C  1.188590   1.863398   -1.607239 
H  1.399506   1.341754   -2.543790 
H  2.049219   1.830631   -0.941931 
O  0.084968   1.248683   -0.937145 
H  -0.816942   0.992443   -1.531700 
C  -0.043165   -0.499800   0.717187 
F  -0.042386   -1.814189   0.965061 
H  0.899100   -0.746518   -1.237172 
13 
Vibrational Frequency frame 
C  -0.036021   -0.308159   -0.845869 
O  -1.114834   -0.391190   -1.582631 
F  1.037112   -0.043721   1.384340 
F  -1.059962   0.130814   1.295622 
H  0.912583   2.898606   -1.800276 
C  1.190410   1.863760   -1.607844 
H  1.399624   1.340555   -2.543853 
H  2.050824   1.828301   -0.942461 
O  0.084754   1.252849   -0.936948 
H  -0.816849   0.988629   -1.530868 
C  -0.043727   -0.500264   0.716896 
F  -0.047556   -1.814202   0.965400 
H  0.904691   -0.739411   -1.233336 
13 
Vibrational Frequency frame 
C  -0.032138   -0.305566   -0.841759 
O  -1.111890   -0.393972   -1.574029 
F  1.039448   -0.041924   1.376218 
F  -1.063378   0.126248   1.293840 
H  0.918455   2.899656   -1.801965 
C  1.192230   1.864122   -1.608449 
H  1.399742   1.339355   -2.543916 
H  2.052429   1.825971   -0.942991 
O  0.084541   1.257015   -0.936751 
H  -0.816756   0.984814   -1.530035 
C  -0.044289   -0.500727   0.716605 
F  -0.052726   -1.814216   0.965739 
H  0.910283   -0.732305   -1.229501 
13 
Vibrational Frequency frame 
C  -0.028255   -0.302973   -0.837649 
O  -1.108946   -0.396753   -1.565427 
F  1.041783   -0.040127   1.368097 
F  -1.066794   0.121683   1.292057 
H  0.924328   2.900706   -1.803653 
C  1.194050   1.864485   -1.609053 
H  1.399860   1.338156   -2.543978 
H  2.054034   1.823641   -0.943521 
O  0.084327   1.261181   -0.936554 
H  -0.816662   0.981000   -1.529202 
C  -0.044851   -0.501191   0.716314 
F  -0.057896   -1.814230   0.966078 
H  0.915875   -0.725199   -1.225665 
13 
Vibrational Frequency frame 
C  -0.024371   -0.300380   -0.833538 
O  -1.106002   -0.399535   -1.556825 
F  1.044119   -0.038330   1.359975 
F  -1.070210   0.117117   1.290275 
H  0.930200   2.901756   -1.805342 
C  1.195870   1.864847   -1.609658 
H  1.399978   1.336957   -2.544041 
H  2.055639   1.821311   -0.944051 
O  0.084114   1.265347   -0.936358 
H  -0.816569   0.977186   -1.528370 
C  -0.045413   -0.501654   0.716023 
F  -0.063066   -1.814244   0.966417 
H  0.921466   -0.718093   -1.221830 
13 
Vibrational Frequency frame 
C  -0.020488   -0.297787   -0.829428 
O  -1.103058   -0.402317   -1.548223 
F  1.046454   -0.036534   1.351854 
F  -1.073627   0.112552   1.288493 
H  0.936072   2.902807   -1.807030 
C  1.197690   1.865209   -1.610263 
H  1.400096   1.335758   -2.544104 
H  2.057244   1.818981   -0.944580 
O  0.083900   1.269514   -0.936161 
H  -0.816476   0.973371   -1.527537 
C  -0.045975   -0.502118   0.715732 
F  -0.068236   -1.814257   0.966756 
H  0.927058   -0.710986   -1.217994 
13 
Vibrational Frequency frame 
C  -0.016605   -0.295194   -0.825318 
O  -1.100114   -0.405099   -1.539621 
F  1.048790   -0.034737   1.343732 
F  -1.077043   0.107987   1.286711 
H  0.941945   2.903857   -1.808719 
C  1.199510   1.865571   -1.610868 
H  1.400213   1.334559   -2.544166 
H  2.058850   1.816650   -0.945110 
O  0.083687   1.273680   -0.935964 
H  -0.816383   0.969557   -1.526705 
C  -0.046537   -0.502581   0.715441 
F  -0.073406   -1.814271   0.967095 
H  0.932650   -0.703880   -1.214159 
13 
Vibrational Frequency frame 
C  -0.012722   -0.292602   -0.821208 
O  -1.097170   -0.407881   -1.531019 
F  1.051125   -0.032940   1.335610 
F  -1.080459   0.103421   1.284929 
H  0.947817   2.904907   -1.810407 
C  1.201330   1.865933   -1.611473 
H  1.400331   1.333359   -2.544229 
H  2.060455   1.814320   -0.945640 
O  0.083473   1.277846   -0.935767 
H  -0.816290   0.965742   -1.525872 
C  -0.047099   -0.503045   0.715149 
F  -0.078576   -1.814285   0.967434 
H  0.938241   -0.696774   -1.210323 
13 
Vibrational Frequency frame 
C  -0.008839   -0.290009   -0.817098 
O  -1.094226   -0.410663   -1.522417 
F  1.053461   -0.031143   1.327489 
F  -1.083875   0.098856   1.283147 
H  0.953689   2.905957   -1.812096 
C  1.203150   1.866295   -1.612077 
H  1.400449   1.332160   -2.544292 
H  2.062060   1.811990   -0.946170 
O  0.083260   1.282012   -0.935571 
H  -0.816197   0.961928   -1.525039 
C  -0.047660   -0.503508   0.714858 
F  -0.083746   -1.814299   0.967773 
H  0.943833   -0.689668   -1.206487 
13 
Vibrational Frequency frame 
C  -0.004956   -0.287416   -0.812988 
O  -1.091282   -0.413445   -1.513815 
F  1.055796   -0.029347   1.319367 
F  -1.087291   0.094291   1.281365 
H  0.959561   2.907007   -1.813784 
C  1.204969   1.866658   -1.612682 
H  1.400567   1.330961   -2.544354 
H  2.063665   1.809660   -0.946699 
O  0.083046   1.286178   -0.935374 
H  -0.816104   0.958114   -1.524207 
C  -0.048222   -0.503971   0.714567 
F  -0.088916   -1.814313   0.968113 
H  0.949424   -0.682561   -1.202652 
13 
Vibrational Frequency frame 
C  -0.001073   -0.284823   -0.808878 
O  -1.088338   -0.416226   -1.505213 
F  1.058132   -0.027550   1.311246 
F  -1.090707   0.089725   1.279583 
H  0.965434   2.908057   -1.815472 
C  1.206789   1.867020   -1.613287 
H  1.400685   1.329762   -2.544417 
H  2.065270   1.807330   -0.947229 
O  0.082832   1.290345   -0.935177 
H  -0.816011   0.954299   -1.523374 
C  -0.048784   -0.504435   0.714276 
F  -0.094086   -1.814326   0.968452 
H  0.955016   -0.675455   -1.198816 
13 
Vibrational Frequency frame 
C  0.002810   -0.282230   -0.804768 
O  -1.085394   -0.419008   -1.496611 
F  1.060467   -0.025753   1.303124 
F  -1.094124   0.085160   1.277801 
H  0.971306   2.909108   -1.817161 
C  1.208609   1.867382   -1.613892 
H  1.400803   1.328563   -2.544480 
H  2.066875   1.805000   -0.947759 
O  0.082619   1.294511   -0.934980 
H  -0.815918   0.950485   -1.522542 
C  -0.049346   -0.504898   0.713985 
F  -0.099256   -1.814340   0.968791 
H  0.960608   -0.668349   -1.194981 
