13

 C    0.144287584444    0.457574369604   -1.557505296452
 O   -0.961178932460    0.179278838189   -2.341838635796
BR    1.579996093288    0.457704739212    0.882847854207
BR   -1.600620469381    0.641907306932    0.721201417786
 C   -0.012815402275   -0.097832630458   -0.094543047370
BR   -0.113890862617   -2.052709207562   -0.085891656325
 H    1.039198833862   -0.022920918138   -1.971730453507
 H    1.068667834723    3.505423947817   -2.326247544124
 C    1.335282448856    2.457533976047   -2.202030863946
 H    1.496216237774    2.006464743448   -3.185862992883
 H    2.246335720328    2.382300944761   -1.603064212276
 O    0.243488169730    1.848653245744   -1.528701974439
 H   -1.391245943234    1.031996885626   -2.475178500451
