13

 C    0.023014058636    0.046070714835   -1.614852932551
 O   -0.947138560400    0.053664146992   -2.309391932660
BR    1.567358637894    0.457137008427    0.857778404153
BR   -1.602888331745    0.642337404785    0.715867950199
 C   -0.037690925869   -0.140775538313   -0.077619528501
BR   -0.112134597084   -2.083096716876   -0.062387451960
 H    1.058697625062   -0.031115855095   -1.989251195148
 H    1.399042636234    3.661548928727   -2.519457277731
 C    1.404475150226    2.601587811093   -2.257136015574
 H    1.454935627960    2.003180737550   -3.173588640741
 H    2.281657205119    2.394543242178   -1.645052045703
 O    0.276265863110    2.260656548315   -1.471947415950
 H   -0.532246696456    2.415995866843   -1.972764822936
