13

 C   -0.085337601929   -0.794502646547    0.070944307033
 O   -1.087937407972   -0.811574620491   -0.660156004612
 H    0.721354960184   -0.701290392210    2.093983130381
 H   -1.049376540494   -0.464176529240    1.953452120072
 C   -0.183884050481   -0.999105017666    1.563369130106
 H   -0.344521191292   -2.070394651435    1.712543761289
 H    0.912896786994   -1.044023042110   -0.347189128902
 H    1.058526853585    2.473368513818   -1.123711493143
 C    1.213824392205    1.433873839319   -0.835895163173
 H    1.323034449517    0.811020501378   -1.728803138841
 H    2.108766555959    1.361747796266   -0.220770525663
 O    0.123911043243    0.999661504022   -0.048424644629
 H   -0.678106886393    0.931961495346   -0.600445223472
