13

 C   -0.117938298612   -0.878857687090    0.062912966772
 O   -1.097948214703   -0.861546409308   -0.659666050119
 H    0.724669692962   -0.671073909630    2.048034515247
 H   -1.051169796834   -0.460529857447    1.947286198024
 C   -0.191243231591   -1.007079240159    1.561973141456
 H   -0.332140002675   -2.071178450728    1.775270920029
 H    0.890308236523   -1.060431038277   -0.363185951099
 H    1.133952883812    2.493548949738   -1.173864471824
 C    1.232482169726    1.456636690945   -0.847476365814
 H    1.313850958314    0.803019819311   -1.722655602632
 H    2.132089837323    1.363212792753   -0.240811253352
 O    0.144282976618    1.089354581124   -0.031734900703
 H   -0.669784961551    1.099555058775   -0.553524147503
