13

 C   -0.030671444627   -0.716671637737    0.095032109597
 O   -1.097589825617   -0.761221025114   -0.673445202700
 H    0.714767345656   -0.716759447330    2.117202134931
 H   -1.048261018631   -0.461039442304    1.947566765964
 C   -0.180907418428   -0.998344685631    1.563155223752
 H   -0.352927677696   -2.070638691985    1.684465602558
 H    0.917973417199   -1.070733039430   -0.337413202432
 H    1.006103966373    2.458850905961   -1.092073433355
 C    1.205183033954    1.417501257146   -0.826708001227
 H    1.328345734849    0.823465733573   -1.738151022358
 H    2.113147029285    1.367980716995   -0.227900593964
 O    0.110063756536    0.934748478915   -0.056039677392
 H   -0.837068093008    0.457327571254   -0.676523791777
