13

 C   -0.062915377886   -0.416084808807   -0.832412995240
 O   -1.085603806670   -0.530620265473   -1.470303232588
 F    1.055772818157   -0.023516893500    1.274087386810
 F   -1.100264972223    0.080958986065    1.275568242190
 C   -0.060434764500   -0.512507004715    0.707173951359
 F   -0.104121796178   -1.821334381909    0.984915080422
 H    0.944916241127   -0.631072452780   -1.238848777583
 H    1.113349299368    2.960890902060   -1.884163340292
 C    1.243156337128    1.909399063161   -1.629551412065
 H    1.392227142167    1.318526380492   -2.537843053999
 H    2.100939005909    1.801491882878   -0.969150517388
 O    0.115947116987    1.449972077069   -0.903686452009
 H   -0.694111002418    1.532026215191   -1.428885009705
