13

 C   -0.032792294917   -0.313496429895   -1.206389959559
 O   -1.019284278879   -0.456050726328   -1.860966979146
CL    1.405137074127    0.375379816820    1.075754398687
CL   -1.492915554479    0.320700753348    1.052470794566
 C   -0.038985235567   -0.369172807488    0.345781711528
CL    0.029295880730   -2.134502317618    0.582784360193
 H    0.996109626376   -0.354196127382   -1.604609479165
 H    1.046900248870    3.299174997340   -2.376414574151
 C    1.150982885008    2.263792433153   -2.046529916014
 H    1.269904539610    1.615007731215   -2.921256849333
 H    2.034855070042    2.181486870522   -1.415320987980
 O    0.048857762840    1.868082650034   -1.249984906192
 H   -0.767118798443    1.931807597925   -1.759371404062
