13

 C    0.133686710258    0.468010091382   -1.560164821998
 O   -0.950924181831    0.130523037871   -2.352043191679
BR    1.579879523480    0.457227097038    0.883061109535
BR   -1.601508522776    0.643754811621    0.721271975522
 C   -0.007498734501   -0.088598282091   -0.102349181371
BR   -0.113320579240   -2.040005027471   -0.094066506431
 H    1.024041965221   -0.007128621508   -1.985762106977
 H    1.114776682464    3.492995043021   -2.288534616611
 C    1.339026712446    2.432331796039   -2.195430174365
 H    1.439533267744    1.995592814373   -3.193105002681
 H    2.268503313107    2.303308792859   -1.634049063549
 O    0.250497751289    1.850627428960   -1.491030535362
 H   -1.609332952173    0.824749414651   -2.232620409289
