13

 C    0.034728003477   -0.118057295069   -0.807110102620
 O   -1.112339869874   -0.477955130159   -1.497483885769
 F    1.063046542821   -0.026800759601    1.298672333410
 F   -1.100482947402    0.081057903301    1.276587990637
 C   -0.045814014645   -0.484335531613    0.697959656582
 F   -0.106081225771   -1.800091445985    0.944854523398
 H    0.908954174426   -0.634832818437   -1.222917048413
 H    0.956373429942    2.872573707994   -1.781461035957
 C    1.223615609237    1.834470611048   -1.593845329843
 H    1.385347211625    1.324937682486   -2.548540230062
 H    2.134790552218    1.799163982932   -0.991662403854
 O    0.132583684648    1.267249071251   -0.887737563589
 H   -1.567970225120    0.351888741569   -1.680258178319
