13

 C    0.056802294052    0.104448935399   -1.182487498521
 O   -1.039743713338   -0.338887701091   -1.899006820733
CL    1.423580629302    0.379525189400    1.120805160765
CL   -1.488849377708    0.326065098716    1.062706421029
 C   -0.015917041002   -0.316204243510    0.328861275167
CL    0.025144240734   -2.091689987515    0.529427065853
 H    0.975461373387   -0.344547418275   -1.578861201042
 H    0.754548978166    3.136759340636   -2.189903850209
 C    1.099395386809    2.125473948613   -1.983150688684
 H    1.298782956612    1.611638540970   -2.928250980847
 H    2.010354117656    2.166847257621   -1.380806799964
 O    0.053382627766    1.491225245300   -1.264569590292
 H   -1.569793563830    0.448528481194   -2.068674871639
