13

 C   -0.095087659472   -0.557694864310   -0.837349531194
 O   -1.112115937153   -0.636905267199   -1.457650471120
 F    1.044908875443   -0.028165258758    1.204209564951
 F   -1.111019931016    0.068969448645    1.245777222240
 C   -0.076795770744   -0.551402334825    0.701112202984
 F   -0.111193711064   -1.845528778181    1.061398971343
 H    0.912211740489   -0.661853765906   -1.277505748739
 H    1.282620419467    3.029123595544   -1.956270912447
 C    1.292844705474    1.980611782572   -1.652276173706
 H    1.348613907418    1.346494932113   -2.543796479663
 H    2.169419937775    1.803464569392   -1.030621413702
 O    0.162483505396    1.664630482747   -0.856738055742
 H   -0.646250620084    1.815723438650   -1.358018177931
