13

 C   -0.034067218483   -0.326390323621   -1.205337007079
 O   -1.020339399929   -0.464157793183   -1.859396235605
CL    1.402931002781    0.373932147632    1.067642026273
CL   -1.493886192758    0.318508075196    1.049190004244
 C   -0.040665759412   -0.375614490028    0.345888809175
CL    0.029342032645   -2.140902064504    0.592527974400
 H    0.994150009896   -0.357061486092   -1.605805659082
 H    1.067085221144    3.310193346975   -2.387657822148
 C    1.156311939859    2.275445895651   -2.050842554169
 H    1.261273437236    1.619761134233   -2.922338510760
 H    2.043176964261    2.183999613008   -1.424915296346
 O    0.053599471766    1.900477830158   -1.244649352013
 H   -0.763183867750    1.970752702701   -1.751091683200
