13

 C    0.004827427735   -0.515842302317    0.081313982975
 O   -1.132306701391   -0.826801210327   -0.692715179093
 H    0.711352284917   -0.733474153129    2.107553327165
 H   -1.038230197550   -0.445853402377    1.954148153271
 C   -0.180390360720   -0.963486539005    1.521888394161
 H   -0.364382070868   -2.038269670451    1.551218651266
 H    0.870927243722   -1.016586349776   -0.370842802831
 H    0.969045141863    2.416893929290   -1.025785317676
 C    1.206204765148    1.376817264282   -0.805157814225
 H    1.279569379686    0.821060081757   -1.745894450009
 H    2.167450886745    1.335257579886   -0.283199496744
 O    0.165285943180    0.881004227016    0.014695060833
 H   -1.520087215853    0.021318561697   -0.928706653116
