13

 C    0.078575044488    0.251566121409   -1.589628645055
 O   -0.925744889542    0.189915178901   -2.314776092688
BR    1.580223074766    0.458406556969    0.882396463353
BR   -1.600710767979    0.641689339095    0.721349693347
 C   -0.020097663510   -0.117455976120   -0.074976355718
BR   -0.113548474760   -2.056194447847   -0.083167802029
 H    1.093413484265   -0.021012692330   -1.943184406242
 H    1.136355154023    3.557091021345   -2.380194664773
 C    1.334243181953    2.499390808972   -2.224497338999
 H    1.510483320865    1.995468715194   -3.177726557796
 H    2.184540916723    2.373266789286   -1.558355549434
 O    0.205953625873    1.932259136373   -1.564083134055
 H   -0.588286670979    1.925959416749   -2.143143015450
