13

 C    0.356300079797    1.013243058251   -0.166403999758
 H   -0.086635920203    0.686581058251   -1.101413999758
 H   -0.002612920203    1.950167058251    0.240200000242
 C    1.545351079797    0.508939058251    0.266606000242
 H    2.044664079797    0.942899058251    1.127491000242
 C   -1.428025920203   -0.274656941749    0.650422000242
 H   -0.857947920203   -1.179509941749    0.819655000242
 H   -1.787675920203    0.254633058251    1.534516000242
 N    2.154609079797   -0.641092941749   -0.221586999758
 H    1.792211079797   -1.086659941749   -1.055913999758
 H    3.095480079797   -0.879398941749    0.059977000242
 O   -2.327625920203   -0.443482941749   -0.436180999758
 H   -2.832637920203    0.403186058251   -0.560745999758
