13

 C    0.356819014756    1.013550136949   -0.166622970895
 H   -0.086921424910    0.685539844334   -1.100712476981
 H   -0.002894778566    1.950197494888    0.239961394595
 C    1.545470833751    0.509067740063    0.266534744787
 H    2.045045653517    0.943139322043    1.127264016408
 C   -1.428622748458   -0.275089592220    0.650899602640
 H   -0.858352064683   -1.179955865680    0.819266293416
 H   -1.788532876407    0.253370569088    1.535387438652
 N    2.154644990303   -0.640994102586   -0.221725742665
 H    1.791670502321   -1.087251803319   -1.054516204486
 H    3.096301038556   -0.879885098951    0.060293804090
 O   -2.327601666167   -0.443359577863   -0.436363315829
 H   -2.832853721422    0.403374792579   -0.560589084469
