13

 C    0.356669461147    1.013603667320   -0.166329405710
 H   -0.087704733559    0.685467736235   -1.101973882144
 H   -0.002257514641    1.949504991824    0.239735495471
 C    1.545449651063    0.509009742999    0.266529691809
 H    2.044972555103    0.943066621516    1.127007941843
 C   -1.428431949437   -0.274772800114    0.650831704502
 H   -0.858514003315   -1.179819061656    0.819458053935
 H   -1.788167434129    0.252686798711    1.534072831245
 N    2.154723885504   -0.641060489386   -0.221632374497
 H    1.791755090136   -1.087310168394   -1.055767035058
 H    3.095067174891   -0.879549776877    0.060021033195
 O   -2.327613620271   -0.443438166919   -0.436340752536
 H   -2.832834166741    0.402932975251   -0.560481457056
