13

 C    0.356861808896    1.013569372207   -0.166656523890
 H   -0.086922720574    0.685472753468   -1.100718841028
 H   -0.002916834199    1.950155904826    0.239934738703
 C    1.545477387716    0.509078887568    0.266535876122
 H    2.045046148438    0.943152697769    1.127262730534
 C   -1.428671755183   -0.275143698572    0.650933381290
 H   -0.858356772210   -1.179999338138    0.819254982833
 H   -1.788547957509    0.253329684516    1.535413705802
 N    2.154651062284   -0.640979421540   -0.221724901836
 H    1.791602203968   -1.087313566172   -1.054435959453
 H    3.096315475767   -0.879889784805    0.060284718365
 O   -2.327604271064   -0.443339647212   -0.436368624452
 H   -2.832804304654    0.403383078740   -0.560584483065
