13

 C    0.356888480212    1.013585355588   -0.166678264942
 H   -0.086936079279    0.685432010106   -1.100731510199
 H   -0.002920831902    1.950113224710    0.239912387991
 C    1.545487642239    0.509091239111    0.266544806781
 H    2.045013619589    0.943124568442    1.127199104125
 C   -1.428705047473   -0.275176923665    0.650956304044
 H   -0.858353142393   -1.180045222060    0.819251479438
 H   -1.788557625709    0.253296844655    1.535425089234
 N    2.154882488318   -0.640954778971   -0.221554002327
 H    1.790876431360   -1.088257600880   -1.056030195368
 H    3.093839431046   -0.879239863423    0.059532620409
 O   -2.327612575950   -0.443317314966   -0.436374224391
 H   -2.832673537547    0.403228873614   -0.560553451617
