13

 C    0.356737285792    1.013501945510   -0.166574778297
 H   -0.086860802654    0.685738046088   -1.100537787948
 H   -0.002883971300    1.950436262646    0.240083277361
 C    1.545457253388    0.509041794608    0.266526520975
 H    2.045066068639    0.943134420181    1.127271507114
 C   -1.428522895395   -0.274989781037    0.650827372044
 H   -0.858387019872   -1.179847684925    0.819297389192
 H   -1.788560792930    0.253481221844    1.535407319328
 N    2.154638784025   -0.641024933518   -0.221720464296
 H    1.791808998911   -1.087131857201   -1.054729844053
 H    3.096210014988   -0.879857883288    0.060301759181
 O   -2.327596932531   -0.443402580538   -0.436352745897
 H   -2.832973162899    0.403381889716   -0.560595395122
