13

 C    0.356844469194    1.013569879483   -0.166639265878
 H   -0.086952544348    0.685483490503   -1.100767705569
 H   -0.002882943981    1.950103258862    0.239916666884
 C    1.545481325118    0.509080832093    0.266545256019
 H    2.045006614162    0.943105436626    1.127195200484
 C   -1.428656531716   -0.275119705780    0.650922938244
 H   -0.858332639359   -1.180018983298    0.819263490943
 H   -1.788532707117    0.253332967336    1.535386540473
 N    2.154875447471   -0.640968779783   -0.221555517552
 H    1.790940566400   -1.088199412520   -1.056109693493
 H    3.093837626350   -0.879238651144    0.059543998047
 O   -2.327612894267   -0.443332045455   -0.436369761379
 H   -2.832671247303    0.403139946905   -0.560545175248
