13

 C    0.356648784358    1.013454831050   -0.166532468691
 H   -0.086795193658    0.686041117720   -1.100199648548
 H   -0.002792127762    1.950708430857    0.240230514504
 C    1.545443818566    0.509003742584    0.266511799939
 H    2.045095141294    0.943159653630    1.127227549725
 C   -1.428405341328   -0.274880742283    0.650717801891
 H   -0.858425636257   -1.179859209975    0.819395430014
 H   -1.788782533387    0.253714626706    1.535662460533
 N    2.154666485620   -0.641057528987   -0.221679543199
 H    1.791888406954   -1.087097876804   -1.055275637021
 H    3.095718744370   -0.879720988365    0.060208453276
 O   -2.327600048267   -0.443445082069   -0.436340072957
 H   -2.833008873920    0.403231841265   -0.560544457563
