13

 C    0.026344451113   -0.095776926279   -0.800922773436
 O   -1.097499201921   -0.527971443576   -1.488599696187
 F    1.060791064443   -0.021885380209    1.305912854390
 F   -1.104527807310    0.091113227541    1.277784077889
 C   -0.042951951497   -0.463199326420    0.689308769899
 F   -0.110240276148   -1.782022706203    0.888819212897
 H    0.896457245842   -0.609889996420   -1.223315589138
 H    1.031203262126    2.863635807634   -1.749027388976
 C    1.234591047886    1.806307916331   -1.593399625471
 H    1.325207574831    1.310037555505   -2.563965172463
 H    2.163793502130    1.695287847941   -1.027790381043
 O    0.137640630184    1.286542205339   -0.857668458264
 H   -1.782726417923    0.137810848085   -1.357653082714
