13

 C   -0.031763888310   -0.303051475834   -1.207155931165
 O   -1.018473556495   -0.449467323223   -1.862197522364
CL    1.406840096495    0.376305160464    1.081211200443
CL   -1.492355117137    0.321948475562    1.054534462308
 C   -0.037750930284   -0.364899056050    0.345732280284
CL    0.029184627854   -2.130118633082    0.576511568944
 H    0.997662484999   -0.351665802599   -1.603536452149
 H    1.031801600908    3.291414764301   -2.367780709854
 C    1.147027864028    2.255632069553   -2.043439485764
 H    1.275715187741    1.612340112692   -2.920710019187
 H    2.028727431658    2.179693574204   -1.408569399402
 O    0.045660456610    1.844600513696   -1.253901937074
 H   -0.769905029623    1.904102697617   -1.765060461578
