13

 C    0.068395338107    0.061423299474   -1.169553155047
 O   -1.037670620810   -0.295796810773   -1.898604578971
CL    1.423439709039    0.380146497833    1.119862398831
CL   -1.487939792953    0.325259130773    1.062268515016
 C   -0.017353572057   -0.329379440426    0.341951221083
CL    0.025804593669   -2.099486523400    0.537082241527
 H    0.994669423964   -0.380883379235   -1.557637906063
 H    0.745039081165    3.148593669088   -2.204025157591
 C    1.090621687281    2.138546663690   -1.989658663194
 H    1.315401245230    1.626783770395   -2.931007097779
 H    1.989762014630    2.186876117176   -1.370613365820
 O    0.036576303974    1.489860010759   -1.290252105374
 H   -1.407738864791    0.566084986563   -2.132084069534
