10

 C   -0.098837098737   -0.636543111509    0.054862397332
 O   -1.122312063592   -0.614157145967   -0.733493876313
 O    0.227545386313    0.907548141000   -0.082369435539
 H   -0.813942561373    0.551984425709   -0.740435463701
 H    1.352010255555    2.318851188931   -1.043593982180
 C    1.408361529092    1.252795303434   -0.809312464207
 H    1.475110879488    0.672631398431   -1.734764954504
 H    2.276625858537    1.064353591814   -0.182706917938
 F   -0.344123538593   -0.817548843529    1.370654626153
 H    0.805545479623   -1.190230987358   -0.205113745193
