10

 C   -0.087616166718   -0.623832028490    0.059454547370
 O   -1.125484977106   -0.609561344574   -0.736263623546
 O    0.231080674266    0.902377029459   -0.079505638463
 H   -0.936092440421    0.445165197840   -0.795154557763
 H    1.347803048579    2.318776986014   -1.041558770354
 C    1.408097574550    1.250705586467   -0.807323962034
 H    1.476824934284    0.675344949534   -1.736458349128
 H    2.282547614687    1.066519626421   -0.188696543840
 F   -0.344635228252   -0.817944133182    1.369775718115
 H    0.797698563388   -1.198101775236   -0.208025977638
