10

 C   -0.095774530646   -0.633424610014    0.056190278552
 O   -1.123078539553   -0.612498541589   -0.734267227254
 O    0.228436830042    0.906221173581   -0.081668872460
 H   -0.847592054372    0.518556051182   -0.754988394740
 H    1.350905796077    2.319613846410   -1.043258912353
 C    1.408318730245    1.252204924116   -0.808762192018
 H    1.475594289057    0.673323566818   -1.735205905131
 H    2.277830833837    1.065005945145   -0.184511489451
 F   -0.344255053005   -0.817659504909    1.370433593390
 H    0.803151007304   -1.192188962912   -0.205691351280
