10

 C   -0.102106986783   -0.639718447709    0.053401781930
 O   -1.121559628843   -0.616171839981   -0.732657375418
 O    0.226639639712    0.908946937096   -0.083067057856
 H   -0.777774030099    0.590216538659   -0.725182101806
 H    1.353188002038    2.317631107362   -1.043853779795
 C    1.408400135723    1.253435578539   -0.809902234256
 H    1.474593248138    0.671939587691   -1.734284522738
 H    2.275489528863    1.063641730917   -0.180762798872
 F   -0.343986104912   -0.817424716897    1.370882886225
 H    0.808169899676   -1.188219960079   -0.204625282334
