10

 C   -0.094515608135   -0.632080261873    0.056721541265
 O   -1.123415149047   -0.611898308742   -0.734582260540
 O    0.228816388747    0.905662415233   -0.081365476946
 H   -0.861306388002    0.505703393902   -0.761033184117
 H    1.350444539505    2.319776574190   -1.043080311214
 C    1.408296330079    1.251966075644   -0.808537508119
 H    1.475790695939    0.673619134082   -1.735389180950
 H    2.278392671771    1.065263869812   -0.185228231172
 F   -0.344310454205   -0.817704348757    1.370339631081
 H    0.802208019995   -1.193028404274   -0.205970098853
