10

 C   -0.107478138435   -0.644785581082    0.050914482938
 O   -1.120386491836   -0.619629346483   -0.731283255587
 O    0.225587145187    0.911472285058   -0.083900878984
 H   -0.724382711361    0.650579922489   -0.703415466998
 H    1.355195256178    2.315917623968   -1.044455549672
 C    1.408531386028    1.254400146487   -0.810839540376
 H    1.473738403426    0.670841032629   -1.733487861642
 H    2.273601357316    1.062547477341   -0.178077527251
 F   -0.343770002271   -0.817220257972    1.371252467171
 H    0.811916538921   -1.184888709309   -0.204037757483
