10

 C   -0.106140241238   -0.643540272438    0.051547629590
 O   -1.120680424210   -0.618773506485   -0.731626312767
 O    0.225780642356    0.910806243247   -0.083750431518
 H   -0.736424043507    0.636323393123   -0.708238907029
 H    1.354687016606    2.316173162793   -1.044237722427
 C    1.408472809416    1.254186573389   -0.810607749214
 H    1.473959949276    0.671129282990   -1.733677405164
 H    2.274087091518    1.062802240372   -0.178613519228
 F   -0.343825100524   -0.817271865321    1.371157492031
 H    0.811158810481   -1.185754820824   -0.204158053302
