10

 C   -0.088292205702   -0.624717857188    0.059202083537
 O   -1.125264145235   -0.609713622648   -0.736102064939
 O    0.230844578834    0.902720593139   -0.079704185363
 H   -0.928779254559    0.450348041857   -0.791743186957
 H    1.348073335315    2.319011302328   -1.041750301662
 C    1.408122222853    1.250826064367   -0.807442221541
 H    1.476727230092    0.675168498092   -1.736346618827
 H    2.282051983736    1.066408752329   -0.188394277248
 F   -0.344602397813   -0.817921991515    1.369835353007
 H    0.798087783835   -1.197571940801   -0.207782814723
