10

 C   -0.091290062690   -0.628427719588    0.058038756934
 O   -1.124332951690   -0.610594908375   -0.735377322903
 O    0.229837458535    0.904183173047   -0.080538633507
 H   -0.896341632548    0.475266839115   -0.776790507402
 H    1.349236892467    2.319706812856   -1.042488037974
 C    1.408218315228    1.251365991272   -0.807967241080
 H    1.476283957686    0.674403327142   -1.735873630120
 H    2.280091415660    1.065884873367   -0.186955114740
 F   -0.344459412601   -0.817819867450    1.370087291106
 H    0.799950872850   -1.195304010251   -0.206815203856
