10

 C   -0.100919350442   -0.638577498370    0.053937307938
 O   -1.121827732235   -0.615420771987   -0.732962561955
 O    0.226957056713    0.908434404163   -0.082822504732
 H   -0.790831906880    0.576195461427   -0.730644359432
 H    1.352759079654    2.318096634199   -1.043762688447
 C    1.408386163089    1.253204618566   -0.809688966775
 H    1.474781337686    0.672186600134   -1.734459958406
 H    2.275895930485    1.063900042176   -0.181459402779
 F   -0.344034895104   -0.817469561777    1.370800904209
 H    0.807224690970   -1.188945179308   -0.204790101682
