10

 C   -0.099136796648   -0.636839250562    0.054730349178
 O   -1.122240826995   -0.614333249448   -0.733417745986
 O    0.227459544664    0.907675844638   -0.082435885714
 H   -0.810620524939    0.555409997946   -0.739018207966
 H    1.352117917948    2.318752102408   -1.043620404388
 C    1.408365168423    1.252853989035   -0.809366577088
 H    1.475063439708    0.672565969606   -1.734721648143
 H    2.276517852879    1.064288617663   -0.182527349342
 F   -0.344110691279   -0.817537579075    1.370675823537
 H    0.805785954439   -1.190043956926   -0.205064086838
