10

 C   -0.095461388258   -0.633094288870    0.056323463885
 O   -1.123161200619   -0.612344682285   -0.734345879566
 O    0.228530169667    0.906082973670   -0.081594386318
 H   -0.851005250076    0.515311410043   -0.756486482062
 H    1.350791562748    2.319662433364   -1.043216760956
 C    1.408313584650    1.252145498859   -0.808706261329
 H    1.475643092063    0.673396382221   -1.735251346299
 H    2.277966398976    1.065070724514   -0.184691138999
 F   -0.344268689033   -0.817670584961    1.370410404123
 H    0.802914377985   -1.192395671441   -0.205758838123
