10

 C   -0.097014586999   -0.634710259807    0.055657731834
 O   -1.122759086988   -0.613137298499   -0.733954884319
 O    0.228072081785    0.906763790112   -0.081957986409
 H   -0.834032180943    0.531727400787   -0.749078611576
 H    1.351354823607    2.319364694235   -1.043410484570
 C    1.408337549882    1.252441868717   -0.808984414681
 H    1.475399438060    0.673039405974   -1.735026164972
 H    2.277317809873    1.064745134759   -0.183789501098
 F   -0.344201665564   -0.817615464109    1.370524196647
 H    0.804103512169   -1.191383826943   -0.205440994323
