10

 C   -0.098536348172   -0.636244635923    0.054994596288
 O   -1.122384012335   -0.613982637712   -0.733570065396
 O    0.227631659290    0.907419719957   -0.082302581251
 H   -0.817271680450    0.548571636942   -0.741859276495
 H    1.351902348990    2.318946867122   -1.043566471300
 C    1.408357741388    1.252736546124   -0.809258195543
 H    1.475158545014    0.672697434780   -1.734808288373
 H    2.276736371539    1.064418584415   -0.182886521373
 F   -0.344136484862   -0.817560072416    1.370633320142
 H    0.805305153593   -1.190418953134   -0.205164956665
