10

 C   -0.092917269119   -0.630309633774    0.057382010904
 O   -1.123859552724   -0.611208492654   -0.734978342913
 O    0.229314212394    0.904939518803   -0.080964635902
 H   -0.878686967066    0.490155990192   -0.768793736474
 H    1.349850774598    2.319829628536   -1.042811725212
 C    1.408261185677    1.251666179225   -0.808253959986
 H    1.476036521297    0.674002982752   -1.735625578475
 H    2.279184336758    1.065579152142   -0.186106323155
 F   -0.344383365796   -0.817761930907    1.370216834809
 H    0.801058818158   -1.194134451989   -0.206364604886
