10

 C   -0.103007316310   -0.640577024369    0.052992255456
 O   -1.121359408143   -0.616748345436   -0.732426017784
 O    0.226415631616    0.909344162153   -0.083241418270
 H   -0.768058166754    0.600790026820   -0.721149398491
 H    1.353514869299    2.317279406414   -1.043926089101
 C    1.408411334131    1.253607605638   -0.810062466124
 H    1.474450875460    0.671755493270   -1.734150232264
 H    2.275180895229    1.063447801365   -0.180249895904
 F   -0.343950395792   -0.817391437731    1.370944212090
 H    0.808869281687   -1.187671127342   -0.204509489448
