10

 C   -0.097321505207   -0.635023184497    0.055524860976
 O   -1.122681980268   -0.613302470098   -0.733877434262
 O    0.227982723173    0.906896940038   -0.082028262668
 H   -0.830664071898    0.535064917917   -0.747620568428
 H    1.351465407847    2.319289284632   -1.043444298914
 C    1.408341840697    1.252500996302   -0.809039534006
 H    1.475350846475    0.672969395135   -1.734982520680
 H    2.277196997818    1.064679749335   -0.183608612633
 F   -0.344188513402   -0.817604457744    1.370546359765
 H    0.804344071453   -1.191187892172   -0.205383036964
