10

 C   -0.087954778547   -0.624277875483    0.059328763802
 O   -1.125373802390   -0.609635394163   -0.736182773445
 O    0.230962064496    0.902549671161   -0.079605576739
 H   -0.932431488308    0.447739496006   -0.793445280331
 H    1.347938985876    2.318897800037   -1.041655930752
 C    1.408109965803    1.250765876160   -0.807383124343
 H    1.476776468515    0.675256418244   -1.736402589139
 H    2.282297234275    1.066464456324   -0.188546189499
 F   -0.344618710634   -0.817933092414    1.369805617465
 H    0.797891400495   -1.197835278041   -0.207902776414
