10

 C   -0.089634107919   -0.626421047469    0.058689646039
 O   -1.124837741311   -0.610067047850   -0.735779287078
 O    0.230386014727    0.903387183315   -0.080086312381
 H   -0.914263096484    0.461109542995   -0.785014068477
 H    1.348600442813    2.319396959916   -1.042103803946
 C    1.408168012509    1.251066108263   -0.807676953392
 H    1.476530902328    0.674820845409   -1.736132745118
 H    2.281126455041    1.066180457834   -0.187770014196
 F   -0.344537882760   -0.817877048098    1.369950432166
 H    0.798893203937   -1.196539098007   -0.207327581115
