10

 C   -0.105814366476   -0.643233643992    0.051699191086
 O   -1.120750308806   -0.618562992680   -0.731709187578
 O    0.225834997454    0.910647676723   -0.083705800924
 H   -0.739514050272    0.632752161943   -0.709482330811
 H    1.354561719226    2.316274614047   -1.044198565274
 C    1.408463682209    1.254128416233   -0.810551662290
 H    1.474011118781    0.671193553758   -1.733727739481
 H    2.274202411464    1.062866792923   -0.178769199836
 F   -0.343838416297   -0.817284722474    1.371135039099
 H    0.810933644920   -1.185954441530   -0.204189984606
