10

 C   -0.098234501570   -0.635943530926    0.055126858755
 O   -1.122457036599   -0.613809855978   -0.733646562982
 O    0.227718604579    0.907290442993   -0.082234906148
 H   -0.820608058067    0.545172393425   -0.743289016488
 H    1.351793960907    2.319038510764   -1.043537902759
 C    1.408353918312    1.252677771993   -0.809203794935
 H    1.475206369027    0.672764345177   -1.734851728449
 H    2.276848320468    1.064483724910   -0.183066607166
 F   -0.344149414908   -0.817571228138    1.370611794606
 H    0.805064437441   -1.190608953175   -0.205217029776
