10

 C   -0.093879548750   -0.631384468974    0.056986013659
 O   -1.123589695983   -0.611613885109   -0.734740381984
 O    0.229012406263    0.905376791799   -0.081208093283
 H   -0.868225941970    0.499410834550   -0.764109066325
 H    1.350209293566    2.319818223104   -1.042979096767
 C    1.408283244663    1.251846230400   -0.808424456038
 H    1.475888915754    0.673770885239   -1.735482329459
 H    2.278696360290    1.065391071473   -0.185582520359
 F   -0.344339195730   -0.817727240363    1.370291353281
 H    0.801744317014   -1.193463587742   -0.206121323810
