10

 C   -0.100623111724   -0.638291160196    0.054069887972
 O   -1.121895453934   -0.615236108825   -0.733038551346
 O    0.227039031257    0.908307981530   -0.082759458564
 H   -0.794113371034    0.572708054648   -0.732024791884
 H    1.352652274272    2.318210250303   -1.043739900197
 C    1.408382725419    1.253146557154   -0.809635577527
 H    1.474828052739    0.672248585512   -1.734503809483
 H    2.275997779893    1.063964580765   -0.181635480508
 F   -0.344047350190   -0.817480862610    1.370780315834
 H    0.806986650640   -1.189127253533   -0.204833305435
