10

 C   -0.093559856551   -0.631030457295    0.057118188300
 O   -1.123678567336   -0.611475848232   -0.734819610426
 O    0.229111955979    0.905232254533   -0.081127925514
 H   -0.871702082330    0.496300906306   -0.765661419284
 H    1.350090564061    2.319829053055   -1.042925464896
 C    1.408276246522    1.251786229835   -0.808367727061
 H    1.475938091188    0.673847663171   -1.735529621845
 H    2.278854417428    1.065454077322   -0.185758154877
 F   -0.344353774091   -0.817738767354    1.370266764932
 H    0.801514101497   -1.193684553203   -0.206200314280
