13

 C    0.024068593463    0.025226604290   -1.608003863984
 O   -0.941036016134    0.057777214495   -2.304421636684
BR    1.557382066572    0.454538741213    0.829748188963
BR   -1.606198287207    0.637980926442    0.704673234367
 C   -0.044931622948   -0.164597416283   -0.075830976681
BR   -0.112968511172   -2.114978024568   -0.030564918681
 H    1.061541265001   -0.021381256735   -1.982254670610
 H    1.480362417769    3.721512558431   -2.562142561248
 C    1.428716012212    2.668458515357   -2.275448271206
 H    1.400971034870    2.051632215691   -3.180750936841
 H    2.320677802537    2.418124931006   -1.701483754132
 O    0.319753263061    2.411322019975   -1.431133658805
 H   -0.497759240026    2.594509180208   -1.905264835467
