13

 C   -0.085237347658   -0.511917232891   -0.835904328620
 O   -1.101888835236   -0.601813467884   -1.461846401269
 F    1.047746626327   -0.025345668477    1.232630248081
 F   -1.106238704048    0.075129037881    1.260407115178
 C   -0.071127428149   -0.533883297817    0.703276216057
 F   -0.108013459774   -1.836543879224    1.026478491462
 H    0.923576025746   -0.647012595993   -1.265732042347
 H    1.227511185005    3.003366078832   -1.936639009025
 C    1.276126924831    1.953173937447   -1.644500858772
 H    1.367864304605    1.329015799116   -2.539606746394
 H    2.146596350223    1.803163809410   -1.007807083789
 O    0.144412668497    1.589568145688   -0.872737669381
 H   -0.663744051498    1.713177306683   -1.384723155182
