13

 C    0.027055915586   -0.100394258754   -0.803065753186
 O   -1.102510402617   -0.519663036921   -1.491187397714
 F    1.061893738689   -0.023077747797    1.302641630040
 F   -1.103657174887    0.088621350421    1.277638392684
 C   -0.044039886398   -0.467599697752    0.690543499522
 F   -0.108859074336   -1.785369721956    0.902458887617
 H    0.897801955888   -0.615436289797   -1.224061519828
 H    1.011456156314    2.864933521059   -1.761433841229
 C    1.233458937353    1.813414382850   -1.591920705001
 H    1.344695666386    1.308407717713   -2.555807935156
 H    2.157693889180    1.726638947654   -1.014484094086
 O    0.137352790750    1.282249881187   -0.862632298806
 H   -1.738885958471    0.203902345607   -1.445618911702
