13

 C    0.025350568373    0.066025857974   -1.616823350443
 O   -0.946410755759    0.065052529000   -2.312274078206
BR    1.571051847744    0.457760580845    0.865261963451
BR   -1.602410082204    0.642551481344    0.718200571017
 C   -0.034969161240   -0.134267116930   -0.078636665775
BR   -0.112320111330   -2.074146503040   -0.069511664926
 H    1.060477396154   -0.027317788453   -1.989796623561
 H    1.361323349271    3.643886230210   -2.497512550994
 C    1.393441773404    2.581146508086   -2.250334623292
 H    1.470462741682    1.995988799771   -3.173264121034
 H    2.266230234332    2.388872529217   -1.627632797173
 O    0.263362799996    2.202235718126   -1.486448231961
 H   -0.544154414303    2.351011791815   -1.992234465043
