13

 C    0.002878518285   -0.495744222296    0.085813370307
 O   -1.073777783701   -0.832231632459   -0.754125134891
 H    0.668891841131   -0.724256589615    2.115006229191
 H   -1.060890004696   -0.388974812337    1.945362986375
 C   -0.218049420122   -0.937608391645    1.517238803145
 H   -0.432338793455   -2.005984705612    1.550577207136
 H    0.868562899787   -1.006232923778   -0.350105963417
 H    1.059790390032    2.432359063674   -0.914023961497
 C    1.162281672638    1.350373185494   -0.847667455848
 H    0.988836068149    0.912770332481   -1.835723317353
 H    2.177613077400    1.108217292546   -0.514154251078
 O    0.209359777508    0.893092321152    0.091402451146
 H   -1.828610119772   -0.305779113643   -0.473285435110
