13

 C    0.148865688263    0.435071512651   -1.551928360715
 O   -0.958476781692    0.201090393866   -2.338872664305
BR    1.580041755752    0.457879385000    0.882772654991
BR   -1.600497546527    0.641723699287    0.721143797823
 C   -0.014257237695   -0.105337086407   -0.087584837979
BR   -0.113920755046   -2.054703057644   -0.084615080805
 H    1.047162615213   -0.043591682818   -1.961979547566
 H    1.065419412863    3.512281632597   -2.334649537052
 C    1.332001293616    2.464714835881   -2.205208049034
 H    1.507002204323    2.012987821066   -3.186775642558
 H    2.236986721259    2.393337068932   -1.596742165168
 O    0.234430971226    1.850120973802   -1.543236291095
 H   -1.305674337086    1.087413680767   -2.499324924084
