13

 C   -0.078624315339   -0.480707916832   -0.835189271921
 O   -1.096212135915   -0.579134930166   -1.464654179858
 F    1.050098901762   -0.024376515555    1.248555734605
 F   -1.103737287157    0.077975580903    1.267271449007
 C   -0.067463845462   -0.524908540816    0.704521700300
 F   -0.106295771633   -1.830863409166    1.008997758683
 H    0.930558513293   -0.639674210936   -1.257818472586
 H    1.190583276450    2.988788762224   -1.920681375705
 C    1.265234491505    1.937625981677   -1.639449203984
 H    1.377627975806    1.322906835234   -2.538283840265
 H    2.131586627282    1.802879238543   -0.994233670096
 O    0.134277833326    1.541815572573   -0.883030288860
 H   -0.674342683448    1.652403660263   -1.399151916340
