13

 C   -0.031085971224   -0.296247511726   -1.207603282173
 O   -1.017958907562   -0.445205901331   -1.862968836205
CL    1.407897651087    0.376813858444    1.084340205879
CL   -1.492064717370    0.322578446428    1.055659798698
 C   -0.037002354844   -0.362483353402    0.345721715169
CL    0.029092369606   -2.127593397524    0.573024223033
 H    0.998672240487   -0.350021447812   -1.602765475201
 H    1.022483314304    3.286762992888   -2.362413770051
 C    1.144601401268    2.250786785024   -2.041587774640
 H    1.279067081201    1.610972365197   -2.920444454791
 H    2.024967762243    2.178623847451   -1.404543039025
 O    0.043805805152    1.830437102876   -1.256298531438
 H   -0.771584756767    1.887486564091   -1.768421701071
