13

 C   -0.011793349573   -0.170951093548   -1.205756749322
 O   -1.007802120903   -0.360976648451   -1.872623038667
CL    1.421261069651    0.381094325905    1.114239714364
CL   -1.489305735650    0.325668225050    1.063161103326
 C   -0.026514312219   -0.341128346250    0.348937828923
CL    0.027316408672   -2.104076769827    0.543915712846
 H    1.021017235806   -0.334656704110   -1.571728328770
 H    0.874179527301    3.219503476146   -2.280371880497
 C    1.106486416116    2.188375838366   -2.017175049655
 H    1.311589774905    1.604728122504   -2.918839189553
 H    1.965918831226    2.166445776954   -1.351093785136
 O    0.019398018261    1.635766684818   -1.293722742096
 H   -0.791474035018    1.635855628381   -1.828065770036
