13

 C   -0.020502674014   -0.214125135664   -1.208961011858
 O   -1.011524407512   -0.391837378698   -1.870353644629
CL    1.417963247103    0.380342303459    1.107980876845
CL   -1.490119996753    0.325513772165    1.062348264789
 C   -0.029729885920   -0.345339153660    0.347187673797
CL    0.027830073548   -2.108711462156    0.549375697768
 H    1.012400479076   -0.337122730277   -1.586058537287
 H    0.923378771200    3.240723772436   -2.306602309185
 C    1.119017512790    2.206254686280   -2.024281508854
 H    1.305258084832    1.604399287073   -2.918923213721
 H    1.985022474721    2.169448838618   -1.366471570804
 O    0.026938890907    1.694082695763   -1.281435553900
 H   -0.787794532007    1.722278615037   -1.803538648943
