13

 C    0.025075438148    0.064024228103   -1.616704687076
 O   -0.946539292735    0.063887663129   -2.312042014601
BR    1.570760227082    0.457715017195    0.864694352841
BR   -1.602443895279    0.642546398180    0.718035205079
 C   -0.035201384921   -0.134764660871   -0.078563069496
BR   -0.112300593300   -2.074817847821   -0.068994182574
 H    1.060248537247   -0.027799413746   -1.989839695513
 H    1.364616839156    3.645327798365   -2.499434900952
 C    1.394396533192    2.582800280027   -2.250899086334
 H    1.469254889606    1.996444953414   -3.173269780099
 H    2.267554774673    2.389309557589   -1.629054581034
 O    0.264401790569    2.207139972309   -1.485223157708
 H   -0.543157567174    2.356413896274   -1.990661272554
