13

 C   -0.027546595319   -0.325226567230   -0.817463642434
 O   -1.074920899778   -0.456428762275   -1.478196614539
 F    1.062360271309   -0.023406952781    1.292905056410
 F   -1.097922925256    0.081068383686    1.277097764239
 C   -0.052904026150   -0.506262219262    0.711749810837
 F   -0.103940019794   -1.814774426437    0.970818157858
 H    0.965758934249   -0.637948533505   -1.202029229064
 H    1.008764792744    2.922553275414   -1.833474979960
 C    1.215513319593    1.877480771010   -1.619013356251
 H    1.398050197587    1.321034929773   -2.541021903144
 H    2.065637010419    1.797569535341   -0.945303923486
 O    0.091370223212    1.337319126981   -0.928537774988
 H   -0.713794877414    1.285125571198   -1.493159779051
