13

 C   -0.168257444160   -1.060451600822    0.061498528467
 O   -1.128616378298   -0.961855111490   -0.659465815831
 H    0.688633861049   -0.597594246409    1.967703746213
 H   -1.095738775630   -0.496756269384    1.903403153007
 C   -0.218637478302   -1.044068232338    1.561661786237
 H   -0.284300255993   -2.079146629866    1.912492435747
 H    0.837032198757   -1.229091758355   -0.375320459589
 H    1.271398942846    2.524873084755   -1.296712042333
 C    1.274695105091    1.512349741319   -0.883761115246
 H    1.266152274484    0.790084086850   -1.707820645439
 H    2.189681100411    1.377153527883   -0.307145534349
 O    0.195047452034    1.306168525905    0.003887422435
 H   -0.627327691754    1.296842290841   -0.495995405349
