5
Coordinates from ORCA-job input
  C   0.32284474985025     -0.39642970680555      0.09731914489499
  O   -1.02199517354690     -0.39132900066304      0.00493101194333
  O   0.98848492997916      0.58237503618533     -0.04443791113968
  H   0.74648789808816     -1.40953861454548      0.31978963770175
  H   -1.37617940437067     -1.28699871417126      0.15184611659960
