13

 C    0.042019291056   -0.057763423587   -1.172864845107
 O   -1.016476633483   -0.277742482395   -1.886657382105
CL    1.423742937218    0.381009244437    1.119514978083
CL   -1.487914602760    0.325340478903    1.062507685857
 C   -0.019275020395   -0.337075145482    0.350458510058
CL    0.026413490401   -2.100791522546    0.539127447198
 H    1.033804082974   -0.367872235158   -1.540333495477
 H    0.776123999480    3.176111423439   -2.228635914579
 C    1.086316421561    2.157276006330   -2.004275076584
 H    1.317323025916    1.616749677115   -2.925586235383
 H    1.947410892764    2.167717235427   -1.339334571073
 O    0.002092771713    1.521035144995   -1.314877742994
 H   -0.870941233099    1.073724451778   -1.915296523089
