13

 C   -0.000275094752   -0.500933124058    0.076853730912
 O   -1.115542632216   -0.844940648273   -0.716590893049
 H    0.710744394800   -0.729658234349    2.093850897447
 H   -1.031647520614   -0.414469957869    1.951832322901
 C   -0.186125224731   -0.946631801819    1.511294939125
 H   -0.387889560189   -2.017818342240    1.538860148473
 H    0.863556239203   -1.002100449557   -0.375358102874
 H    1.014185019892    2.420747195118   -0.986590694452
 C    1.198748737114    1.361853765066   -0.811438038909
 H    1.186377249667    0.834721513069   -1.770563004037
 H    2.181654908814    1.243805305726   -0.343377408884
 O    0.176437734166    0.892631160922    0.046983894323
 H   -1.686563684809   -0.071561965730   -0.729665588621
