13

 C   -0.128800698945   -0.914537281243    0.061524357145
 O   -1.103286898536   -0.880334793898   -0.660023520143
 H    0.723205938556   -0.658201287676    2.029981010542
 H   -1.054020702342   -0.460102195231    1.940652199366
 C   -0.194956902858   -1.012110570420    1.561664827662
 H   -0.326553421870   -2.071465573798    1.803666911797
 H    0.880608217825   -1.077602465265   -0.367913630637
 H    1.163405716683    2.500768305801   -1.195508110807
 C    1.240489799277    1.466622072094   -0.853184389911
 H    1.307818498943    0.800499469944   -1.720517499095
 H    2.142725413646    1.364171359490   -0.251342012013
 O    0.152529960057    1.128247941959   -0.024671021454
 H   -0.663360324630    1.144818968273   -0.540734801865
