13

 C    0.034920105440    0.120457287403   -1.616396671193
 O   -0.941172014035    0.097124437123   -2.315828261822
BR    1.576200700279    0.458427674576    0.874853765423
BR   -1.601805529432    0.642375291992    0.720594458731
 C   -0.029910206800   -0.125594189343   -0.079110224423
BR   -0.112790319838   -2.063297269767   -0.077614954189
 H    1.068419592812   -0.016806814183   -1.983824951896
 H    1.287161967561    3.613949130995   -2.455467316992
 C    1.372599404067    2.548410450092   -2.239115545754
 H    1.492244040056    1.990463551691   -3.173446467129
 H    2.236957437864    2.381284089903   -1.598747481454
 O    0.242682820371    2.100660047001   -1.513142005557
 H   -0.565096361429    2.237040419675   -2.025936426957
