13

 C    0.145923411396    0.360111817114   -1.547067853680
 O   -0.948287685765    0.233025414392   -2.332489398616
BR    1.580128479004    0.458117839593    0.882698848277
BR   -1.600453873724    0.641632307700    0.721163136061
 C   -0.016073431312   -0.114676610790   -0.079008684727
BR   -0.113833610787   -2.055915836961   -0.083663883012
 H    1.069918870333   -0.072040326047   -1.948567796778
 H    1.083297687068    3.530883017844   -2.353349435612
 C    1.328483881881    2.477871271603   -2.212634383513
 H    1.516314495091    2.014256153479   -3.186365297718
 H    2.216678095151    2.392886546140   -1.582766571853
 O    0.213694156171    1.870621773272   -1.562864310520
 H   -1.086407685802    1.194785105576   -2.440001702170
