13

 C    0.023964991982    0.025440392538   -1.608131067110
 O   -0.941304690001    0.056924247905   -2.304450477159
BR    1.557586155956    0.454631686993    0.830616776494
BR   -1.606046704073    0.638214261436    0.705088335646
 C   -0.044744622248   -0.163883383395   -0.075819975141
BR   -0.112899444194   -2.114082189131   -0.031665593778
 H    1.061393516115   -0.021633057250   -1.982430009680
 H    1.478688649541    3.719580618101   -2.561382441508
 C    1.428197583638    2.666406736258   -2.274975178013
 H    1.402593232234    2.049691948308   -3.180416646113
 H    2.319664351993    2.417235746093   -1.699745542321
 O    0.318384498062    2.407595326459   -1.432310587542
 H   -0.498638784823    2.589889142597   -1.907366131007
