13

 C   -0.084085377016   -0.506407318686   -0.835776809103
 O   -1.100832978687   -0.597789648784   -1.462342151025
 F    1.048138254810   -0.025134708292    1.235625895509
 F   -1.105755341072    0.075707652407    1.261778101338
 C   -0.070471437025   -0.532137470881    0.703503647951
 F   -0.107680894329   -1.835503357181    1.023061072269
 H    0.924836050285   -0.645522326989   -1.264356228289
 H    1.220979590915    3.000674611235   -1.933934037467
 C    1.274181121619    1.950286331890   -1.643597719337
 H    1.369738158119    1.327669203372   -2.539306779287
 H    2.143931803592    1.803114644843   -1.005333540059
 O    0.142529297238    1.580956954388   -0.874575880219
 H   -0.665670803051    1.702069588724   -1.387409215766
