13

 C    0.048258705321    0.112743169651   -1.182250503544
 O   -1.027882631840   -0.376730701860   -1.900258582960
CL    1.424149331830    0.380459535672    1.122372276688
CL   -1.491231738715    0.330123312056    1.063202668441
 C   -0.012648920133   -0.305338888805    0.323563567954
CL    0.023942716592   -2.075916775898    0.510508532598
 H    0.963027597226   -0.333266179590   -1.586996123402
 H    0.796913111778    3.131316059884   -2.168301246545
 C    1.106120603954    2.105567495156   -1.978221738285
 H    1.261969914515    1.593437575567   -2.931998993082
 H    2.032096341881    2.104785956081   -1.396929153543
 O    0.055679972192    1.498796594011   -1.239762613814
 H   -1.722000682568    0.291761538277   -1.849712022064
