13

 C    0.064489066622   -0.014619158469   -1.162544896905
 O   -1.028062641790   -0.268331861607   -1.894874238418
CL    1.423549409111    0.380732550382    1.119462000011
CL   -1.487822331278    0.325276644626    1.062312024698
 C   -0.018434916651   -0.335955757345    0.348711131579
CL    0.026203921697   -2.100913878059    0.538908816277
 H    1.020131921956   -0.391820272884   -1.544402365663
 H    0.763059254739    3.168191163766   -2.221739929724
 C    1.086808849631    2.150213048903   -1.997969941939
 H    1.320039777975    1.624233790767   -2.929994209809
 H    1.965799217122    2.179741314678   -1.355612894477
 O    0.014786874272    1.508444918449   -1.307275141552
 H   -1.155520846293    0.709665735305   -2.048621912881
