13

 C    0.137102026113    0.330957825353   -1.550825726889
 O   -0.942815829070    0.238870501484   -2.328994516539
BR    1.580185354727    0.458176601673    0.882732871116
BR   -1.600473535486    0.641621975462    0.721210061776
 C   -0.016578271721   -0.115996322408   -0.077406163688
BR   -0.113781328259   -2.055972013151   -0.083552507951
 H    1.078921174928   -0.065873380831   -1.943365530118
 H    1.090962294200    3.540244758731   -2.359237813386
 C    1.328228616664    2.482287210065   -2.215992948904
 H    1.515753701343    2.011488641387   -3.183444814646
 H    2.205102048827    2.387495754816   -1.575242236370
 O    0.205959295774    1.879766148757   -1.568381764346
 H   -0.947945151345    1.260392999394   -2.367067471184
