13

 C   -0.021566454515   -0.220522443983   -1.209174650682
 O   -1.012068020813   -0.396229815497   -1.869925365171
CL    1.417354054240    0.380178571673    1.106771698121
CL   -1.490240632050    0.325445278717    1.062115801347
 C   -0.030230411752   -0.346167352846    0.346969275657
CL    0.027916562545   -2.109641695847    0.550468042872
 H    1.011194090944   -0.337735664007   -1.587887515276
 H    0.930701598869    3.243971948302   -2.310588201469
 C    1.120909908189    2.209152278067   -2.025426378438
 H    1.303923721915    1.604529205849   -2.918992303101
 H    1.987968100754    2.169983735790   -1.369002772900
 O    0.028091944903    1.703291168550   -1.279576892373
 H   -0.786778840254    1.734410560059   -1.800523263507
