13

 C    0.142755408182    0.461338167221   -1.558905915489
 O   -0.961389101894    0.172752867722   -2.342798941815
BR    1.579974314286    0.457649252926    0.882858137623
BR   -1.600670222189    0.641997200086    0.721217579381
 C   -0.012312056577   -0.095796580637   -0.096509663121
BR   -0.113864891449   -2.051838946037   -0.086425471508
 H    1.037100961124   -0.018555544653   -1.974596109360
 H    1.072091877494    3.503984013520   -2.324077369167
 C    1.336359412517    2.455390525415   -2.201216159867
 H    1.492177874851    2.004113319823   -3.185668380354
 H    2.249192595824    2.377173075053   -1.605286520938
 O    0.245413183986    1.849322037128   -1.524081869386
 H   -1.415611917010    1.015131736571   -2.460416521655
