13

 C   -0.081637765287   -0.787326256519    0.072284762550
 O   -1.087631341578   -0.806852979520   -0.660583116515
 H    0.720718394555   -0.703586969640    2.097724511830
 H   -1.049355623483   -0.464333635715    1.953140287617
 C   -0.183367057079   -0.998735843110    1.563495031864
 H   -0.345526619846   -2.070330302298    1.708061619896
 H    0.914673208182   -1.044363434520   -0.345624187652
 H    1.052205609401    2.471320905871   -1.119698474253
 C    1.212388246714    1.432079662673   -0.835095187911
 H    1.323476971061    0.811896898316   -1.729488070970
 H    2.107349726636    1.361666743354   -0.219653160231
 O    0.122007877177    0.992325828282   -0.049720434838
 H   -0.678728682266    0.908949324328   -0.605044150983
