13

 C    0.032091074543   -0.112596947404   -0.807377245587
 O   -1.111741414814   -0.489984993076   -1.496139816687
 F    1.062994085629   -0.026331954500    1.299162994422
 F   -1.101240007147    0.082356617821    1.276836211881
 C   -0.045527798869   -0.480194627679    0.695499796640
 F   -0.106466712008   -1.796108955493    0.936040076441
 H    0.905433581070   -0.628564768973   -1.225057843615
 H    0.967722354448    2.870602398218   -1.779029409021
 C    1.226790225577    1.830221083304   -1.592943187612
 H    1.378297526174    1.319325818429   -2.548439318000
 H    2.140913601548    1.786409045429   -0.995662434752
 O    0.134958493834    1.271115793425   -0.880479284113
 H   -1.609342976783    0.323398878547   -1.639215484789
