13

 C    0.013403891029   -0.271304899333   -0.797829413300
 O   -1.084891290645   -0.416378129930   -1.490193968414
 F    1.062780989288   -0.024088494992    1.295000315644
 F   -1.097401574495    0.080493206970    1.275861969004
 C   -0.049650094569   -0.505145733276    0.713792908656
 F   -0.104503087705   -1.814327012004    0.969019208960
 H    0.962919449237   -0.666998596724   -1.190439544889
 H    0.973352948526    2.911712144764   -1.817480430711
 C    1.210529119221    1.866000487407   -1.613064960782
 H    1.401431929185    1.328895208225   -2.545623675843
 H    2.070914703921    1.804623817533   -0.952499268611
 O    0.083870697246    1.294798560154   -0.933955784546
 H   -0.881075631508    0.845921871312   -1.543777052517
