13

 C   -0.166474130916   -1.053857091354    0.061270297926
 O   -1.127403122768   -0.957801722964   -0.659528254246
 H    0.691771746438   -0.601156588551    1.970026203027
 H   -1.092135256019   -0.492583978798    1.905027631187
 C   -0.217090867217   -1.042155437653    1.561614957908
 H   -0.287703011939   -2.078274874087    1.908351207516
 H    0.839249849689   -1.219567523621   -0.375577137662
 H    1.267232519932    2.524006294557   -1.291273200452
 C    1.273174992235    1.510053719752   -0.881989898695
 H    1.268601793296    0.790653611764   -1.708604474536
 H    2.187359075364    1.375862752343   -0.303887455960
 O    0.192504268717    1.297285295536    0.002516803078
 H   -0.629287258648    1.290120810001   -0.498528351614
