13

 C   -0.000659045901   -0.500240398096    0.077318438480
 O   -1.110784527662   -0.844255090141   -0.721943927169
 H    0.708555098744   -0.728263478448    2.094652942315
 H   -1.032475014434   -0.410471324514    1.952881921352
 C   -0.188267333801   -0.944849189745    1.512017841237
 H   -0.391646235302   -2.015645723006    1.540866654538
 H    0.862553490879   -1.002920782977   -0.373738032374
 H    1.019199041068    2.421921348790   -0.979261216549
 C    1.195863771068    1.360062298149   -0.814247698294
 H    1.168390474366    0.840429767390   -1.777173447349
 H    2.182554166197    1.229395018703   -0.357369866153
 O    0.178745522960    0.892997725111    0.051215084038
 H   -1.714426667067   -0.095620442779   -0.684752433040
