13

 C    0.000885471416   -0.496460253666    0.082985277513
 O   -1.081844814139   -0.835276084713   -0.748638971016
 H    0.680645718153   -0.723060220408    2.108240519445
 H   -1.051624535342   -0.391859698205    1.949233555763
 C   -0.209857203984   -0.937979846525    1.516155575813
 H   -0.421538314011   -2.006866291647    1.550296331580
 H    0.865090342365   -1.005622601914   -0.357263567235
 H    1.049361793881    2.429851570421   -0.930452421868
 C    1.171379828533    1.351714001962   -0.838943827531
 H    1.034795279947    0.891524391267   -1.822511060081
 H    2.181475132122    1.137045339137   -0.472646480074
 O    0.201160396360    0.893548078255    0.081886890988
 H   -1.820332932490   -0.270825833821   -0.494593269431
