13

 C   -0.112759880435   -0.863066170803    0.063774819703
 O   -1.095687467054   -0.852915929040   -0.659507877601
 H    0.724752662947   -0.676813351779    2.056365710308
 H   -1.050392287303   -0.461123649341    1.949603467033
 C   -0.189726081520   -1.005148015939    1.562168389971
 H   -0.334497023810   -2.071051995145    1.762850500551
 H    0.894591176781   -1.054845630613   -0.360720129495
 H    1.120379612543    2.490139730071   -1.164334573587
 C    1.228941178804    1.452277920896   -0.845080306596
 H    1.316148081165    0.804277267534   -1.723629609630
 H    2.127421751987    1.362897944511   -0.236425057575
 O    0.140636246562    1.072337767506   -0.034913240468
 H   -0.672191591659    1.076617738570   -0.560344047280
