13

 C    0.068870700770    0.056787046473   -1.168641424776
 O   -1.037218590144   -0.293372732368   -1.898504541540
CL    1.423435629836    0.380191443889    1.119811706186
CL   -1.487914452433    0.325250974071    1.062254361220
 C   -0.017420901207   -0.330072801909    0.342644153290
CL    0.025836205806   -2.099707518398    0.537316169097
 H    0.996270476106   -0.383351786921   -1.556429284382
 H    0.745920154350    3.149776296224   -2.205286174358
 C    1.090220638786    2.139377256535   -1.990177479859
 H    1.316053018814    1.627146593412   -2.931080725144
 H    1.988490952629    2.187046022643   -1.369862896070
 O    0.035107871119    1.490748250363   -1.291634001473
 H   -1.395388399281    0.574229674798   -2.131160135860
