13

 C   -0.082914410233   -0.500821144873   -0.835649750990
 O   -1.099790288402   -0.593728479500   -1.462844813003
 F    1.048545331958   -0.024940744721    1.238578231950
 F   -1.105284145887    0.076259490135    1.263094420385
 C   -0.069810216520   -0.530440716106    0.703729393257
 F   -0.107356568762   -1.834463908916    1.019749572593
 H    0.926095962566   -0.644120500707   -1.262956979717
 H    1.214368576021    2.998005618672   -1.931138687090
 C    1.272220709587    1.947429028121   -1.642687369264
 H    1.371564368137    1.326431492211   -2.539033579212
 H    2.141238571809    1.803065973909   -1.002865981021
 O    0.140668659671    1.572313120075   -0.876427217939
 H   -0.667614557650    1.691004649153   -1.390068285685
