13

 C   -0.044762086986   -0.360638316661   -0.825814569264
 O   -1.077350269750   -0.485970016709   -1.474575865843
 F    1.060416147594   -0.023312445862    1.287958510607
 F   -1.098651261241    0.081365230059    1.277551871191
 C   -0.055512451957   -0.507444936260    0.709840480711
 F   -0.103700667820   -1.816365599640    0.974242868548
 H    0.958013352419   -0.630793397129   -1.217251930863
 H    1.046695315089    2.937348626120   -1.851869058080
 C    1.225032337719    1.888280369112   -1.622282630938
 H    1.397313795888    1.319130466635   -2.539163137285
 H    2.076906169708    1.799105127780   -0.952595096917
 O    0.101335446754    1.378472027094   -0.920013264714
 H   -0.705547112435    1.409011468044   -1.465643218818
