13

 C    0.000439595477   -0.502238974816    0.076478636983
 O   -1.121702284318   -0.844830849564   -0.709305321857
 H    0.712617044576   -0.731200865273    2.093577681979
 H   -1.031639515644   -0.420452019502    1.950278604125
 C   -0.183781774573   -0.949372645067    1.510740043956
 H   -0.382736817659   -2.021184193280    1.536893069784
 H    0.865093941210   -1.001571203612   -0.376989971248
 H    1.005981486702    2.419089740561   -0.997159770123
 C    1.202080965741    1.364566941593   -0.808300537217
 H    1.210191579855    0.827443693470   -1.762067269637
 H    2.179945063162    1.264648329208   -0.325960453696
 O    0.173877831617    0.891682684412    0.041280018773
 H   -1.646739104596   -0.043920027931   -0.790970453151
