13

 C    0.009151414623   -0.551661233908    0.090606969941
 O   -1.127866039811   -0.797350416716   -0.688695236056
 H    0.708726838154   -0.729630080259    2.123027351241
 H   -1.041671686460   -0.455886461231    1.957840242718
 C   -0.180681898776   -0.981723773027    1.542818345925
 H   -0.357137060875   -2.056748120972    1.604398289521
 H    0.878816239171   -1.050217573950   -0.358019775848
 H    0.958346120553    2.425588352393   -1.042445342131
 C    1.205877608708    1.390166387816   -0.809534178300
 H    1.312830021579    0.831958082673   -1.746343482354
 H    2.155611955663    1.368181010433   -0.265979587606
 O    0.150300650956    0.878442837224   -0.013041954455
 H   -1.416644316503    0.085038792306   -0.945329873023
