13

 C    0.005869245844   -0.520315671162    0.083017069520
 O   -1.132161982020   -0.821364650054   -0.691574193582
 H    0.710596508761   -0.733456423476    2.111611240396
 H   -1.039329248160   -0.449344438035    1.955837086884
 C   -0.180279964799   -0.966781748202    1.525876701561
 H   -0.362121314274   -2.041898596232    1.558683835212
 H    0.872204665740   -1.021730481902   -0.368304549456
 H    0.964131731687    2.417757581940   -1.028548117391
 C    1.206107966839    1.379226892893   -0.805621074700
 H    1.288019611497    0.823143264241   -1.745584793649
 H    2.164807630200    1.344032364088   -0.278617327511
 O    0.162976248197    0.878916643718    0.009065090949
 H   -1.500871052916    0.032500704180   -0.937593013162
