13

 C    0.003816021415   -0.512092282836    0.079725997483
 O   -1.131951027166   -0.831879323836   -0.694265992629
 H    0.712090364778   -0.733255148604    2.103521285172
 H   -1.036921788680   -0.441658672851    1.952351832324
 C   -0.180605310621   -0.960395973488    1.518248043468
 H   -0.367130080170   -2.034726372821    1.545358276429
 H    0.869759702928   -1.011980188070   -0.373241613443
 H    0.975033496373    2.416444143120   -1.022619788058
 C    1.206200250408    1.374449653287   -0.804933646480
 H    1.269847395213    0.819535082167   -1.746757212707
 H    2.170172681727    1.325037940417   -0.288623387760
 O    0.167288327935    0.883388563009    0.020281270910
 H   -1.539974657061    0.010443062364   -0.915958875852
