13

 C   -0.017729283766   -0.310380080299   -0.812453052464
 O   -1.075884257891   -0.444276399378   -1.480687786930
 F    1.062776021445   -0.023535708030    1.294070340863
 F   -1.097687856679    0.080888908479    1.276716136916
 C   -0.051892129529   -0.506015191138    0.712529662152
 F   -0.104102701813   -1.814437084678    0.969969691226
 H    0.967893495458   -0.643872062912   -1.196805010521
 H    0.996086874735    2.916428495198   -1.827098426543
 C    1.212728904701    1.873902445366   -1.617903930937
 H    1.398517402272    1.322531953505   -2.542141095645
 H    2.063828767529    1.797603657892   -0.943718918076
 O    0.087070197226    1.322180957398   -0.931467059011
 H   -0.723366545872    1.205371491712   -1.500133599568
