13

 C   -0.055220401707   -0.390173082119   -0.830033951448
 O   -1.081534377256   -0.510097893097   -1.472342640605
 F    1.058080374054   -0.023385347414    1.281496668080
 F   -1.099409774073    0.081322458224    1.276995580687
 C   -0.057983133106   -0.509576770068    0.708368914562
 F   -0.103778988258   -1.818622396030    0.978979335064
 H    0.950966073372   -0.629815664374   -1.229466802211
 H    1.081964434619    2.949813914095   -1.868918357411
 C    1.234472503614    1.899087828757   -1.625930566126
 H    1.395501178486    1.318498282457   -2.538290236766
 H    2.089253676987    1.800467414300   -0.960714388137
 O    0.109133332968    1.415728411381   -0.911590302420
 H   -0.700309756659    1.479568776620   -1.444046145909
