13

 C    0.006380936156   -0.522863053792    0.083884044480
 O   -1.131938128702   -0.818582062369   -0.691115368126
 H    0.710239541072   -0.733328003448    2.113533399448
 H   -1.039786926171   -0.450784598799    1.956556383438
 C   -0.180259568802   -0.968484342306    1.527927825150
 H   -0.361178330950   -2.043717992977    1.562977621839
 H    0.872878955556   -1.024490266064   -0.367035056395
 H    0.962160563452    2.418337472768   -1.029890053384
 C    1.206050725134    1.380446504333   -0.805930851209
 H    1.291789680348    0.824280582500   -1.745566386206
 H    2.163553578599    1.347892980739   -0.276621333046
 O    0.161715821440    0.878067091343    0.006292940068
 H   -1.491421250021    0.038217167352   -0.940812904807
