13

 C   -0.057262818568   -0.396695111489   -0.830733217079
 O   -1.082541583506   -0.515324118239   -1.471843981081
 F    1.057513621780   -0.023413172287    1.279785340826
 F   -1.099604219447    0.081263447353    1.276725887813
 C   -0.058575719342   -0.510214975424    0.708060530473
 F   -0.103839258732   -1.819241007140    0.980302971992
 H    0.949426096093   -0.629984580335   -1.231949615352
 H    1.089867026987    2.952599336544   -1.872756651283
 C    1.236637793697    1.901623022475   -1.626813801464
 H    1.394834697157    1.318446975712   -2.538151298000
 H    2.092135669719    1.800743104662   -0.962728325679
 O    0.110838743320    1.424216009200   -0.909633454822
 H   -0.698890687737    1.493335410472   -1.439914014345
