13

 C    0.128101552025    0.315060525312   -1.556016352360
 O   -0.938698106433    0.236702685978   -2.326104245661
BR    1.580227011157    0.458206652915    0.882771170579
BR   -1.600487569780    0.641616549633    0.721244471367
 C   -0.016874165783   -0.116405401651   -0.076648450340
BR   -0.113747744075   -2.055961183509   -0.083511000736
 H    1.083844304928   -0.057010612875   -1.939863001131
 H    1.095197830582    3.546532293911   -2.362329057868
 C    1.328430655555    2.484874181904   -2.218254905352
 H    1.514257010937    2.009112618137   -3.180706718765
 H    2.196497984224    2.383172965627   -1.570115010144
 O    0.201139793778    1.885011593289   -1.571506885644
 H   -0.832373491737    1.363675607600   -2.300845950788
