13

 C    0.145049397796    0.455257149187   -1.556732701686
 O   -0.960958172663    0.182561609494   -2.341380595037
BR    1.580005212975    0.457731910260    0.882839901687
BR   -1.600597825001    0.641869405349    0.721192351598
 C   -0.013053781250   -0.098913289102   -0.093513013755
BR   -0.113900637956   -2.053092042047   -0.085654276754
 H    1.040274326734   -0.025437804869   -1.970253696151
 H    1.067344469644    3.506230134512   -2.327347657416
 C    1.334749496639    2.458590507328   -2.202456993000
 H    1.498079023488    2.007601651384   -3.185988952760
 H    2.244919684481    2.384530871696   -1.602028757564
 O    0.242383858562    1.848444075784   -1.530981583217
 H   -1.379030732635    1.040256836252   -2.481200262793
