13

 C    0.029437960089    0.091913450458   -1.617381869500
 O   -0.944245738567    0.080132835154   -2.314525623391
BR    1.573997308785    0.458176125793    0.870831686640
BR   -1.602078288566    0.642507522143    0.719696007913
 C   -0.032354429548   -0.129319551221   -0.079191235447
BR   -0.112559206525   -2.067706244064   -0.074368687987
 H    1.063921836919   -0.021458911385   -1.988004080933
 H    1.323557075611    3.628184346119   -2.475706422625
 C    1.382662473926    2.563523751866   -2.244264899945
 H    1.482710397710    1.992261240339   -3.173312923887
 H    2.251224286500    2.384507939961   -1.612272927864
 O    0.252296702950    2.148505420172   -1.500178529013
 H   -0.555166337020    2.291627015581   -2.009428047568
