13

 C    0.000053919739   -0.501503041609    0.076614271857
 O   -1.118615170475   -0.845169766486   -0.712949465138
 H    0.711828277518   -0.730499920711    2.093542891356
 H   -1.031488585940   -0.417324767811    1.951050037563
 C   -0.184868995627   -0.947937577887    1.510916477252
 H   -0.385361401547   -2.019406962773    1.537710762003
 H    0.864263347564   -1.001679523695   -0.376268490451
 H    1.010353609070    2.419942144510   -0.991752094599
 C    1.200507467923    1.363151191846   -0.809760356850
 H    1.198283384705    0.830984165069   -1.766278752543
 H    2.180904865485    1.253933911298   -0.334474386245
 O    0.175083674037    0.892252438827    0.044174872150
 H   -1.667929251760   -0.055751790746   -0.760370674485
