13

 C    0.039077782150   -0.218426262495   -0.791354576703
 O   -1.097468317994   -0.413345870021   -1.497927097469
 F    1.062275440726   -0.025113742483    1.295049426365
 F   -1.097547540773    0.079980328173    1.275329790876
 C   -0.047889661593   -0.502595632514    0.712999522089
 F   -0.105000685240   -1.814275601507    0.968085611705
 H    0.944002079095   -0.689213489079   -1.194933241056
 H    0.957981244923    2.898239340126   -1.807213332529
 C    1.211066912305    1.857232996563   -1.605624328658
 H    1.404132231554    1.337470439308   -2.549795620801
 H    2.096405919641    1.816800731895   -0.969307433442
 O    0.099096870904    1.278860117476   -0.924340412803
 H   -1.228419361409    0.538126360257   -1.687979890372
