13

 C   -0.038308325995   -0.363633294958   -1.203052203408
 O   -1.024714486126   -0.483638338497   -1.855990404210
CL    1.397619183249    0.366591704073    1.031357073397
CL   -1.499980616771    0.304049206358    1.032327867943
 C   -0.046269490165   -0.404433121043    0.345850973086
CL    0.027871815921   -2.166028682062    0.641311741947
 H    0.987405945744   -0.364221479304   -1.610489132387
 H    1.135436964059    3.360441571664   -2.416216011893
 C    1.173700448535    2.325845023229   -2.067561849142
 H    1.219170247840    1.657094510376   -2.934496470281
 H    2.073361246961    2.191908096207   -1.467525296860
 O    0.076265314861    2.019041435456   -1.224577057693
 H   -0.746202433881    2.124598124842   -1.711981754730
