13

 C    0.100198674090    0.281474116436   -1.573902073525
 O   -0.929200314635    0.214310455283   -2.318482488587
BR    1.580300707438    0.458288492572    0.882738915469
BR   -1.600559447538    0.641616786279    0.721284526928
 C   -0.018097556856   -0.116909912981   -0.075339533179
BR   -0.113663710844   -2.055977225388   -0.083426880169
 H    1.095746316343   -0.035177675231   -1.937798306774
 H    1.112116935881    3.545180228637   -2.368359488872
 C    1.329379143649    2.492332550074   -2.222553373005
 H    1.511672250578    2.000033288312   -3.180687717200
 H    2.183966071108    2.374232907127   -1.557665351178
 O    0.197752886905    1.903455782073   -1.572190933345
 H   -0.614276775779    1.735810783476   -2.178095003417
