13

 C   -0.025334248310   -0.709955328390    0.097269900337
 O   -1.099437335578   -0.757804353048   -0.675156076794
 H    0.714174144730   -0.717076006292    2.116682188066
 H   -1.048198435897   -0.460208602475    1.947528740917
 C   -0.180976068985   -0.998623375560    1.562889024438
 H   -0.353264857524   -2.070835914339    1.684483120708
 H    0.915558498597   -1.075220358307   -0.337794717205
 H    1.003227354262    2.460495096431   -1.091170196840
 C    1.205284385403    1.416209545032   -0.825546304338
 H    1.329009703138    0.824931929278   -1.739034992022
 H    2.114901669758    1.369548406342   -0.231834777114
 O    0.111888867690    0.932108177031   -0.054606461464
 H   -0.896910333841    0.383226761225   -0.704587797529
