5
Coordinates from ORCA-job input_IRC_B
  C   -0.04304517779431      1.06871419993556     -0.20684915538123
  O   -1.20113883373506      0.97429837427685     -0.26433341536522
  O   1.11506196545481      1.16087536079870     -0.14883392767729
  H   0.44684034726464     -1.60644778369409      0.33626648346476
  H   -0.31499685713692     -1.60185789854086      0.28477032730882
