13

 C    0.149290919521    0.430825062022   -1.551208213553
 O   -0.957937374694    0.203847595866   -2.338481437009
BR    1.580046123435    0.457900690097    0.882761530987
BR   -1.600486945799    0.641709870964    0.721138625068
 C   -0.014420636073   -0.106287438802   -0.086729740452
BR   -0.113919275145   -2.054875733077   -0.084496523507
 H    1.048409899035   -0.046732561749   -1.960805657523
 H    1.065957768622    3.513434981556   -2.335957204225
 C    1.331636118443    2.465683748896   -2.205681443205
 H    1.508132811748    2.013585576063   -3.186877520402
 H    2.235757037422    2.394131240789   -1.595955817585
 O    0.233007151217    1.850923602303   -1.544969540361
 H   -1.293382139856    1.094788931605   -2.499703871729
