13

 C    0.145793687964    0.452631126625   -1.555929442578
 O   -0.960669135446    0.185824412470   -2.340936225199
BR    1.580013210602    0.457758522512    0.882830379944
BR   -1.600576782137    0.641835871284    0.721183106940
 C   -0.013282025836   -0.100015513231   -0.092472829564
BR   -0.113908370059   -2.053440051254   -0.085436381544
 H    1.041366869170   -0.028159216297   -1.968775808032
 H    1.066310964127    3.507098852281   -2.328476662812
 C    1.334230553633    2.459638792482   -2.202895081756
 H    1.499835199545    2.008689618755   -3.186125132215
 H    2.243524568187    2.386534999295   -1.601044945977
 O    0.241194966760    1.848351727765   -1.533215888868
 H   -1.366803550856    1.048402941025   -2.486315412712
