13

 C   -0.134427069890   -0.934212797167    0.061009498550
 O   -1.106369244374   -0.890532709018   -0.660169694266
 H    0.721576644823   -0.651075688028    2.020438849109
 H   -1.056370793735   -0.460663225864    1.936303560695
 C   -0.197221187102   -1.015298559615    1.561564365671
 H   -0.323165023031   -2.071672647819    1.819432629063
 H    0.875195669184   -1.090138078055   -0.370075073007
 H    1.179077948072    2.504516805927   -1.207629582400
 C    1.244959331625    1.472265315743   -0.856526699836
 H    1.303950168056    0.799239544163   -1.719282515130
 H    2.148655339340    1.364909795016   -0.257490050799
 O    0.157186734143    1.150140509699   -0.020845543417
 H   -0.659343211154    1.167206155745   -0.534684144889
