13

 C    0.150206770381    0.412393168642   -1.548809887855
 O   -0.955583819818    0.213753103357   -2.336932808863
BR    1.580063450728    0.457976353024    0.882724513009
BR   -1.600459350406    0.641672244316    0.721128275045
 C   -0.014986944179   -0.109554010383   -0.083804367660
BR   -0.113905280819   -2.055379336327   -0.084133087592
 H    1.053738002697   -0.058118474702   -1.956742323518
 H    1.069569190684    3.518181579449   -2.341166999136
 C    1.330411526242    2.469359719949   -2.207568896254
 H    1.511782564081    2.015138695204   -3.187134629150
 H    2.230933366759    2.395854239045   -1.592810920011
 O    0.227389823157    1.855256385440   -1.551049872083
 H   -1.243543766133    1.123227369793   -2.495188446554
