13

 C    0.026261475398   -0.093313731418   -0.799893402676
 O   -1.095067621383   -0.531666247375   -1.486895707196
 F    1.060059905903   -0.021518346029    1.308092768226
 F   -1.104985332183    0.092151240472    1.277674054062
 C   -0.042308293546   -0.461188573360    0.688797589616
 F   -0.110963224158   -1.780550210202    0.882335490957
 H    0.896275319414   -0.606581025821   -1.223081384174
 H    1.041754854179    2.863434521043   -1.741630093533
 C    1.234894160020    1.802965637707   -1.594885863299
 H    1.313800371957    1.312722515659   -2.569541090658
 H    2.166840774723    1.678031963480   -1.036526812971
 O    0.137876747888    1.288873237177   -0.855557996605
 H   -1.801323549820    0.103199285380   -1.316779279424
