13

 C   -0.026699876554   -0.711733938063    0.096713770943
 O   -1.098946799599   -0.758584721132   -0.674720519501
 H    0.714315985038   -0.717004033675    2.116810589289
 H   -1.048233676900   -0.460421016784    1.947536436284
 C   -0.180951933516   -0.998552677643    1.562961836208
 H   -0.353180044810   -2.070786585332    1.684477927671
 H    0.916195069030   -1.074043039840   -0.337667464885
 H    1.003947594234    2.460244526694   -1.091446947368
 C    1.205264923408    1.416539395784   -0.825842070967
 H    1.328842328474    0.824550778894   -1.738799198044
 H    2.114379318358    1.369146022662   -0.230841864797
 O    0.111399138465    0.932787453927   -0.054997265642
 H   -0.881576978664    0.401187386038   -0.697231750849
