13

 C   -0.015687455608   -0.307586275464   -0.811414509825
 O   -1.076247213103   -0.442046226874   -1.481249044840
 F    1.062825205366   -0.023566349729    1.294231933527
 F   -1.097650733940    0.080854797158    1.276642404476
 C   -0.051709058218   -0.505974066965    0.712665120868
 F   -0.104134482005   -1.814393635119    0.969844124208
 H    0.968134246158   -0.645205427566   -1.195982817816
 H    0.993989267389    2.915368711148   -1.826034589037
 C    1.212321149454    1.873290219452   -1.617684378848
 H    1.398639054972    1.322878439908   -2.542363540985
 H    2.063794710997    1.797725948069   -0.943614529084
 O    0.086306808347    1.319555949608   -0.931963797560
 H   -0.726385684948    1.187498430690   -1.500992397171
