13

 C    0.022727237540    0.042384216092   -1.614228060136
 O   -0.947044634563    0.051769176253   -2.308687468653
BR    1.566389613071    0.456962195760    0.855683649356
BR   -1.603039860865    0.642221975421    0.715164302075
 C   -0.038352879166   -0.142584656291   -0.077346268950
BR   -0.112110296501   -2.085610787768   -0.060281695927
 H    1.058560818143   -0.031309329673   -1.988819972704
 H    1.407786699568    3.666141258482   -2.524455075934
 C    1.407058018092    2.606912234596   -2.258823503188
 H    1.450725757986    2.005671083412   -3.173800177718
 H    2.285355784292    2.396118695093   -1.649550192221
 O    0.279657876004    2.274958198788   -1.468382266031
 H   -0.529281140649    2.432259957812   -1.967613587099
