13

 C   -0.091319463044   -0.540649274735   -0.836701840001
 O   -1.107961802884   -0.623398962817   -1.459232779675
 F    1.045873262578   -0.026868001997    1.215536387185
 F   -1.109079278779    0.071517254422    1.251945155051
 C   -0.074646391004   -0.544260230883    0.701990755245
 F   -0.109938702744   -1.842183217014    1.046989710511
 H    0.916669953390   -0.655890501807   -1.273002350793
 H    1.261971835868    3.018685623342   -1.949740702133
 C    1.286524835915    1.969593118471   -1.649326727450
 H    1.356653352293    1.338438211384   -2.541792860787
 H    2.160763773964    1.803391997938   -1.021555651672
 O    0.155184080583    1.636053795277   -0.862873128639
 H   -0.653156068180    1.775154289721   -1.369096319179
