13

 C    0.086151899260    0.263293461878   -1.584008381426
 O   -0.926270318006    0.199609826310   -2.315679628291
BR    1.580279908853    0.458361100759    0.882572660550
BR   -1.600639714874    0.641655155569    0.721319497976
 C   -0.019248100871   -0.117215813118   -0.074998124381
BR   -0.113596064656   -2.056075358042   -0.083298508564
 H    1.094998507940   -0.025611049008   -1.940136336222
 H    1.125613930171    3.551845401342   -2.374953451197
 C    1.331867353641    2.496410517253   -2.223814602009
 H    1.510834776753    1.996988817912   -3.178821936075
 H    2.182956943272    2.373068048979   -1.557062682690
 O    0.202448172969    1.920007381932   -1.567625654200
 H   -0.592255996081    1.864966823601   -2.157054916047
