13

 C   -0.158360866794   -1.023370855240    0.060551510232
 O   -1.121773989769   -0.939356462053   -0.659881024792
 H    0.703760399764   -0.615903642850    1.981351114704
 H   -1.078161578486   -0.477449041929    1.912998847812
 C   -0.210668861930   -1.033923230312    1.561500514053
 H   -0.300695035801   -2.075042385748    1.888006117070
 H    0.849105760276   -1.178387914193   -0.375807100472
 H    1.246420484913    2.519734336005   -1.267458062904
 C    1.265997940708    1.499811896355   -0.874354356850
 H    1.279604028753    0.793218685317   -1.711931440593
 H    2.176916223514    1.371416749110   -0.289924692464
 O    0.181737572829    1.256984256158   -0.003659891285
 H   -0.637937013294    1.259274546015   -0.509066958595
