13

 C    0.132847471667    0.466844421301   -1.558820818281
 O   -0.947262043123    0.123911278810   -2.353211294111
BR    1.579984023235    0.457172060372    0.883382166270
BR   -1.601860683803    0.644437349758    0.721338022228
 C   -0.006478108570   -0.088495798630   -0.101819910706
BR   -0.113161194558   -2.037011766071   -0.096370708132
 H    1.023022978541   -0.007115963414   -1.985562053353
 H    1.124243036042    3.490521417505   -2.275045777181
 C    1.337537763163    2.426588654756   -2.194864134041
 H    1.422842219766    1.998955267019   -3.197893768081
 H    2.271530888360    2.281781873164   -1.644615206293
 O    0.250559088710    1.849044991126   -1.485326541201
 H   -1.640729647917    0.772938495598   -2.181867273196
