13

 C    0.131936872536    0.320983048302   -1.553751582509
 O   -0.940342605072    0.238298993118   -2.327291635546
BR    1.580210507755    0.458195568834    0.882755119006
BR   -1.600482134086    0.641618736069    0.721230833141
 C   -0.016759444011   -0.116274066072   -0.076927786695
BR   -0.113760719900   -2.055967636687   -0.083525849943
 H    1.081658382589   -0.060647725939   -1.941071402146
 H    1.093389914116    3.544961866747   -2.361295264346
 C    1.328365564454    2.483790832948   -2.217385864952
 H    1.514834835215    2.010317567224   -3.181309152031
 H    2.199704622750    2.384915336203   -1.572294905788
 O    0.202995018326    1.883007561058   -1.570328474608
 H   -0.879883193917    1.314425770105   -2.328246591869
