13

 C    0.008765666214   -0.543136757468    0.088989566583
 O   -1.129146306890   -0.802298173601   -0.689193243107
 H    0.708843592574   -0.730872552703    2.121738789659
 H   -1.041411304914   -0.455437917208    1.958224029472
 C   -0.180511732601   -0.978658222559    1.539554974086
 H   -0.357710623377   -2.053897619664    1.593697286359
 H    0.877260471823   -1.043393741816   -0.360034576819
 H    0.957544365528    2.423481832468   -1.038959672287
 C    1.205878773996    1.387811452413   -0.808529885000
 H    1.308875274794    0.830481723345   -1.746151299678
 H    2.157290921232    1.364625499661   -0.267974228163
 O    0.153223885771    0.877085476943   -0.008774987558
 H   -1.435336650748    0.073402909814   -0.947052027995
