13

 C    0.000124422267   -0.130100717624   -1.198975826779
 O   -1.005189483812   -0.329793626152   -1.874533172548
CL    1.423109605872    0.381334174363    1.117681938859
CL   -1.488575820478    0.325541112076    1.063095472384
 C   -0.023613819965   -0.338863598687    0.350510948266
CL    0.026914529315   -2.101757962081    0.541000229297
 H    1.029429486763   -0.337045685696   -1.556072903265
 H    0.828872669166    3.200359656858   -2.256868299186
 C    1.095551922578    2.174042458160   -2.011790560471
 H    1.313986630959    1.606794919796   -2.919877227178
 H    1.949983372153    2.164060736667   -1.339823922205
 O    0.012132769579    1.585674070701   -1.304211158370
 H   -0.788965163670    1.530748236349   -1.860264242438
