13

 C    0.150034361118    0.397788109814   -1.547586292041
 O   -0.953678569649    0.220106786262   -2.335760558483
BR    1.580078204397    0.458023635715    0.882706576235
BR   -1.600450211067    0.641655690592    0.721130300559
 C   -0.015339943651   -0.111459605152   -0.082085773994
BR   -0.113888693931   -2.055616095105   -0.083946738108
 H    1.058060837935   -0.064735874392   -1.954216389635
 H    1.073161871232    3.521752360892   -2.344892052950
 C    1.329697836137    2.471909310700   -2.208970731828
 H    1.513736925878    2.015538625418   -3.187155676207
 H    2.227265029640    2.395944715482   -1.590313916111
 O    0.223361820728    1.859276636619   -1.554870713170
 H   -1.204471752360    1.143506989376   -2.486117223313
