13

 C   -0.018781641928   -0.204379786925   -1.208515100511
 O   -1.010685004669   -0.385061002294   -1.870954945228
CL    1.418831271411    0.380563009816    1.109671211139
CL   -1.489936404873    0.325589964423    1.062639787161
 C   -0.028981228882   -0.344190140876    0.347546594226
CL    0.027703874704   -2.107427237457    0.547869894360
 H    1.014277172303   -0.336296529868   -1.583115349900
 H    0.912260718728    3.235837705964   -2.300592970567
 C    1.116150596127    2.201972754999   -2.022582991901
 H    1.307088622954    1.604291866535   -2.918838658609
 H    1.980587119596    2.168682625515   -1.362734177453
 O    0.025199575364    1.680374263775   -1.284257330968
 H   -0.789045892637    1.703635012327   -1.808311125245
