13

 C    0.052004700944    0.110204412622   -1.184148414102
 O   -1.035958441984   -0.358660561411   -1.899444565916
CL    1.423701509465    0.379581801357    1.121245938130
CL   -1.489711866809    0.327370626819    1.062863573517
 C   -0.014627518382   -0.310644487439    0.324750839225
CL    0.024659351458   -2.084778725844    0.522078253353
 H    0.968709812513   -0.337120099600   -1.585061965369
 H    0.772923255709    3.134326559573   -2.183350307756
 C    1.103684697369    2.117617074168   -1.980769384252
 H    1.284972343797    1.601590826346   -2.928059511020
 H    2.020971943767    2.143325527149   -1.386929039346
 O    0.055766316801    1.496033663886   -1.251933104660
 H   -1.642875232108    0.386356779148   -1.982097330397
