13

 C   -0.094013760141   -0.552915442838   -0.837150309650
 O   -1.110903658929   -0.633053830637   -1.458096387725
 F    1.045167634213   -0.027770678203    1.207470799414
 F   -1.110458707637    0.069704896954    1.247598007130
 C   -0.076188577049   -0.549333423460    0.701368072355
 F   -0.110836687939   -1.844603787686    1.057192372739
 H    0.913487895823   -0.660147948522   -1.276219342063
 H    1.276835069311    3.026074750161   -1.954573038008
 C    1.291068661380    1.977416045831   -1.651444304560
 H    1.350983437779    1.344010073553   -2.543160936962
 H    2.166970281677    1.803451824947   -1.027997860159
 O    0.160392452291    1.656569327479   -0.858463915155
 H   -0.648771540450    1.804145571588   -1.361619970911
