13

 C    0.022437419921    0.034062900557   -1.612243200773
 O   -0.946159287340    0.048608660998   -2.306803756377
BR    1.563485219348    0.456398372591    0.848925439927
BR   -1.603606882067    0.641654467624    0.712767447574
 C   -0.040307228108   -0.148409193935   -0.076594197551
BR   -0.112115844478   -2.093649184636   -0.053178043765
 H    1.058747696360   -0.030016709619   -1.987116625983
 H    1.432148666801    3.680507077525   -2.537973056976
 C    1.414277213735    2.623403782162   -2.263789048002
 H    1.437448870732    2.015081994824   -3.174889085534
 H    2.296051352260    2.401263915385   -1.663443339271
 O    0.290251518737    2.316652444775   -1.457805728482
 H   -0.520399743601    2.480598314358   -1.951397363504
