13

 C    0.132413869122    0.465802557703   -1.557578541914
 O   -0.944507447583    0.118852108598   -2.353698452168
BR    1.580105371893    0.457137944247    0.883746177880
BR   -1.602164685397    0.645031953065    0.721414724293
 C   -0.005724397204   -0.088485638653   -0.101238994938
BR   -0.113041312010   -2.034757276851   -0.098266711900
 H    1.022756489752   -0.007003667186   -1.984948349463
 H    1.131729211415    3.488696264111   -2.263659963988
 C    1.336032438736    2.422242620111   -2.194793798738
 H    1.408661181377    2.002878058039   -3.202317731294
 H    2.273680493651    2.264264577348   -1.654220763731
 O    0.250567109970    1.847705789476   -1.481092063682
 H   -1.660735203090    0.733396073226   -2.147898501462
