13

 C    0.143067345735    0.347763046572   -1.547990276052
 O   -0.946214320516    0.236266506690   -2.331197916210
BR    1.580150111766    0.458143650555    0.882708230040
BR   -1.600460761709    0.641627558814    0.721180767247
 C   -0.016287441235   -0.115340682420   -0.078274547666
BR   -0.113812518837   -2.055954090299   -0.083608629913
 H    1.073912791262   -0.070985269941   -1.946605184197
 H    1.086655294936    3.534169760089   -2.355850233843
 C    1.328271514931    2.479762383403   -2.213954402972
 H    1.516430020604    2.013203202678   -3.185656535134
 H    2.212407504425    2.390964500192   -1.579759594102
 O    0.210528445990    1.874462629712   -1.565206816666
 H   -1.035990577850    1.214793348421   -2.414981512587
