13

 C   -0.067333653355   -0.763530896019    0.078182710964
 O   -1.088196463534   -0.790864326665   -0.663101547803
 H    0.718514743576   -0.710230024029    2.108695336074
 H   -1.049059846486   -0.464377998639    1.951226623366
 C   -0.181923456727   -0.997933771753    1.563786116477
 H   -0.348652735292   -2.070212686623    1.695333647378
 H    0.919771694104   -1.048298234461   -0.340915498932
 H    1.032907552175    2.463810165087   -1.107239817200
 C    1.208246103235    1.426556511796   -0.832649069080
 H    1.324790268425    0.815209840746   -1.731988668407
 H    2.104846988219    1.361817052975   -0.217367124051
 O    0.115513460406    0.969069841573   -0.053735307547
 H   -0.684451197437    0.811725080768   -0.617455121266
