13

 C    0.040700173352   -0.209752152488   -0.791883748020
 O   -1.098940631173   -0.415941307269   -1.498387414488
 F    1.062269836960   -0.025272659434    1.295166568917
 F   -1.097611687154    0.079907814506    1.275300312590
 C   -0.047698109966   -0.502000185302    0.712593787339
 F   -0.105068628903   -1.814079172386    0.967733574827
 H    0.941055261151   -0.689201494668   -1.196073453930
 H    0.955704041108    2.896075389146   -1.805326356269
 C    1.211353126132    1.855887510406   -1.604634316098
 H    1.403976577188    1.338184501156   -2.550058046604
 H    2.099487574553    1.817927214438   -0.971266356906
 O    0.101398728736    1.276458609170   -0.922717061325
 H   -1.261697369884    0.524052177476   -1.700635988754
