13

 C    0.000261298257   -0.496821112772    0.082015100236
 O   -1.085001748512   -0.836398626301   -0.746318586131
 H    0.684951476136   -0.722901889430    2.105874154428
 H   -1.048304107057   -0.393287787255    1.950557789590
 C   -0.206795482847   -0.938307571495    1.515753130688
 H   -0.417472250313   -2.007402783685    1.549941731363
 H    0.863965443758   -1.005478856738   -0.359803905625
 H    1.045182431443    2.428762934093   -0.937062274957
 C    1.174713781492    1.352366537598   -0.835632737246
 H    1.052411748495    0.883543282380   -1.817017660610
 H    2.182450986097    1.148639233642   -0.456901396903
 O    0.198068089992    0.893627549055    0.078169052009
 H   -1.814853531312   -0.254703965227   -0.506187223583
