13

 C    0.006873732304   -0.525639604482    0.084751992814
 O   -1.131628640783   -0.815790030632   -0.690711981793
 H    0.709908415942   -0.733111942540    2.115331951379
 H   -1.040183137066   -0.452015812376    1.957160604114
 C   -0.180260228594   -0.970208126803    1.529981211609
 H   -0.360355039586   -2.045524254294    1.567600197500
 H    0.873574534811   -1.027373668038   -0.365784019912
 H    0.960538187338    2.419010549559   -1.031253748785
 C    1.205998212570    1.381674778212   -0.806286058511
 H    1.295271649370    0.825428788571   -1.745608103853
 H    2.162357221207    1.351419296928   -0.274807722259
 O    0.160393821078    0.877386070477    0.003575285038
 H   -1.482041238083    0.044030983248   -0.943322804070
