13

 C    0.001616441761   -0.496133582337    0.084060549431
 O   -1.078564257650   -0.834095978058   -0.750943297060
 H    0.676032561883   -0.723400128034    2.110837725350
 H   -1.055225082809   -0.390555301993    1.947756689726
 C   -0.213099640393   -0.937744496635    1.516581015439
 H   -0.425827579932   -2.006424610398    1.550523935074
 H    0.866384551862   -1.005809976472   -0.354492545212
 H    1.053720078210    2.430940902111   -0.923606483563
 C    1.167819054402    1.351111735625   -0.842419558329
 H    1.016330680682    0.900067107980   -1.828048257794
 H    2.180166832134    1.125125644649   -0.489235504733
 O    0.204415341724    0.893412770337    0.085729122463
 H   -1.825131590786   -0.285859505447   -0.484323410046
