13

 C    0.125617787395    0.311675575913   -1.557500467764
 O   -0.937707324720    0.235227323040   -2.325364714725
BR    1.580236811081    0.458212899708    0.882781328989
BR   -1.600490712987    0.641615236485    0.721252882986
 C   -0.016943642739   -0.116469272195   -0.076491521841
BR   -0.113740036640   -2.055956512740   -0.083502373545
 H    1.085446894078   -0.054825649464   -1.939317009762
 H    1.096476441875    3.546506750126   -2.362793245564
 C    1.328440899302    2.485607876130   -2.218759950148
 H    1.513956331393    2.008149274231   -3.180823657840
 H    2.194761664736    2.382102946330   -1.568654370480
 O    0.200055039692    1.886200279210   -1.572177605204
 H   -0.802572037277    1.399675781024   -2.283677166970
