13

 C   -0.033400294025   -0.719986515956    0.093844921128
 O   -1.096697474051   -0.763191199376   -0.672575741463
 H    0.715071239655   -0.716531733511    2.117384246038
 H   -1.048277858439   -0.461414857191    1.947624196771
 C   -0.180897837369   -0.998198644259    1.563275849045
 H   -0.352741236682   -2.070522784583    1.684555026476
 H    0.919050295708   -1.068578714504   -0.337326312852
 H    1.007630763842    2.457819849458   -1.092544154637
 C    1.205149064032    1.418141057073   -0.827289759145
 H    1.328020741687    0.822735728686   -1.737703284291
 H    2.112325806692    1.367220663058   -0.226049212224
 O    0.109327036338    0.936224293337   -0.056617781712
 H   -0.808686694877    0.495684814079   -0.663765814507
