13

 C   -0.013486916534   -0.691066298113    0.101331154683
 O   -1.104397759171   -0.754797697945   -0.678838026075
 H    0.713532228620   -0.717539051620    2.116402460261
 H   -1.046863092053   -0.458618024565    1.947366264765
 C   -0.181341434525   -0.999049390362    1.562058998544
 H   -0.353989031532   -2.071168198899    1.683648851028
 H    0.909779393512   -1.085706493145   -0.339778374456
 H    0.997247212354    2.455866716252   -1.086429403766
 C    1.205108724855    1.413422620283   -0.823031633386
 H    1.330241853925    0.828384718309   -1.741642026791
 H    2.123897217332    1.373048557434   -0.238603765917
 O    0.116853168156    0.925205620646   -0.050417188830
 H   -1.030031812589    0.265771341905   -0.773159465748
