13

 C    0.018180854963   -0.265216531354   -0.795925780833
 O   -1.086686773526   -0.412713265455   -1.491779505490
 F    1.062688138330   -0.024211906752    1.294959332768
 F   -1.097396172109    0.080429973569    1.275771969232
 C   -0.049379056749   -0.504929096409    0.713828322905
 F   -0.104567867999   -1.814388064317    0.968972370619
 H    0.960228377003   -0.671102746776   -1.190383254997
 H    0.970647778598    2.913272063010   -1.816900179211
 C    1.210721026310    1.864667055102   -1.611883670242
 H    1.402059385928    1.330116608627   -2.546325391720
 H    2.072449015795    1.806564925611   -0.956393375454
 O    0.085732531623    1.292675499609   -0.932890255272
 H   -0.938415251019    0.766307703807   -1.565366106432
