13

 C   -0.029378497263   -0.328333509275   -0.818392669512
 O   -1.074907903207   -0.459013008241   -1.477771245802
 F    1.062240409623   -0.023387510457    1.292593932595
 F   -1.097978960138    0.081103854860    1.277170193582
 C   -0.053121404070   -0.506323664594    0.711580577990
 F   -0.103908987606   -1.814868899479    0.971036059789
 H    0.965182877864   -0.636949747248   -1.203267920481
 H    1.011711027028    2.923903224080   -1.834943352831
 C    1.216212738973    1.878300769434   -1.619250367730
 H    1.397982117336    1.320787884159   -2.540807389768
 H    2.066293838604    1.797654082959   -0.945808352504
 O    0.092275778775    1.340693864286   -0.927876716537
 H   -0.712528511529    1.299101260841   -1.491114381166
