13

 C   -0.172711085893   -1.076655245277    0.062177193770
 O   -1.131576581593   -0.971845010198   -0.659361901787
 H    0.679953769591   -0.588096409676    1.962113223241
 H   -1.105566127361   -0.508571855430    1.899619021400
 C   -0.222712021851   -1.049005646456    1.561828178619
 H   -0.274836612394   -2.081545289648    1.922362783382
 H    0.831409774351   -1.253398119142   -0.374348865410
 H    1.280945554949    2.526921753037   -1.310570124071
 C    1.278363635915    1.518142988960   -0.888292744724
 H    1.260150068835    0.788657928613   -1.705752564028
 H    2.195503803185    1.381034895685   -0.315526559849
 O    0.201675085580    1.328175977227    0.007308318427
 H   -0.622370283370    1.313377657393   -0.489337581169
