13

 C   -0.148891025559   -0.987471550311    0.060338527004
 O   -1.115317600072   -0.918928688249   -0.660197712118
 H    0.713421062323   -0.630980557314    1.996110973754
 H   -1.066640783122   -0.466976004700    1.922772726443
 C   -0.204484522149   -1.025585294582    1.561471188304
 H   -0.311712532348   -2.072951545710    1.861560467239
 H    0.860003298662   -1.136676169180   -0.374436119072
 H    1.220140807458    2.513976651059   -1.242078721955
 C    1.257430223692    1.488290368395   -0.866524296229
 H    1.290891700318    0.795789854132   -1.715284609064
 H    2.165196379419    1.367972813087   -0.275697296943
 O    0.170903756873    1.212241065104   -0.010617245381
 H   -0.647191044540    1.223069220994   -0.519681338751
