13

 C    0.022878153576    0.028790415232   -1.610116605570
 O   -0.944288082380    0.049724035381   -2.305309283303
BR    1.560498412821    0.455665852315    0.840810820677
BR   -1.604507350141    0.640485394606    0.709605408970
 C   -0.042398334328   -0.155342620367   -0.076012196149
BR   -0.112311844184   -2.103023203383   -0.044048045538
 H    1.059727414844   -0.026165567911   -1.984894595451
 H    1.455656286755    3.697536840443   -2.550267369803
 C    1.421247650939    2.642501629922   -2.269062629526
 H    1.421861538223    2.028876042404   -3.176935458410
 H    2.307174623999    2.407791585283   -1.679529214363
 O    0.302630943549    2.360156569099   -1.446230352374
 H   -0.510192738178    2.532134257686   -1.931984532483
