13

 C    0.057946026076   -0.032231032768   -1.164861766945
 O   -1.024198312941   -0.267278057009   -1.892531622790
CL    1.423631542887    0.380851447735    1.119476024036
CL   -1.487843789624    0.325298532964    1.062379398763
 C   -0.018745924912   -0.336551386089    0.349514736959
CL    0.026285827534   -2.100890116114    0.539021559411
 H    1.025299293727   -0.384146720999   -1.542066176096
 H    0.766869585261    3.175204859389   -2.225459303439
 C    1.086807759420    2.152732539937   -2.000044499226
 H    1.319516843399    1.621108181265   -2.929118973654
 H    1.955428399874    2.175344469133   -1.352164558796
 O    0.009559881393    1.513088112544   -1.310604914712
 H   -1.055302555228    0.793170544636   -1.999911997902
