13

 C    0.067050512607   -0.003242036222   -1.162237625691
 O   -1.029979674335   -0.270907724739   -1.895854943179
CL    1.423509206753    0.380655320686    1.119473397845
CL   -1.487814221978    0.325263750038    1.062277327879
 C   -0.018255281650   -0.335436675829    0.348109472895
CL    0.026151838432   -2.100884028028    0.538799364351
 H    1.016537906907   -0.394459703040   -1.545907076131
 H    0.760311260068    3.164817935960   -2.219393265337
 C    1.087051802809    2.148576532910   -1.996670318899
 H    1.320050362395    1.625665594434   -2.930430351398
 H    1.970656801012    2.181971440927   -1.358181975985
 O    0.017978774361    1.505454787449   -1.305123634875
 H   -1.206889766660    0.680283841255   -2.072403183324
