13

 C   -0.164687701944   -1.047203403144    0.061066842881
 O   -1.126175024093   -0.953724165417   -0.659599546154
 H    0.694730350758   -0.604595998403    1.972406746602
 H   -1.088715688959   -0.488712812685    1.906707958087
 C   -0.215589319666   -1.040272769312    1.561577596001
 H   -0.290902487372   -2.077453628030    1.904089616235
 H    0.841452759539   -1.210181412700   -0.375759033154
 H    1.262883595659    2.523115797917   -1.285887260661
 C    1.271626485298    1.507770629890   -0.880243966483
 H    1.271065921432    0.791228450095   -1.709371548340
 H    2.185039080394    1.374702931279   -0.300684261337
 O    0.190019508257    1.288365239288    0.001144997743
 H   -0.631231505252    1.283354569456   -0.500985945018
