13

 C   -0.090572911337   -0.805494743585    0.069200715418
 O   -1.088709530943   -0.818672974000   -0.659717053448
 H    0.722261159467   -0.697594577468    2.088046059516
 H   -1.049393002227   -0.463829036342    1.953649449786
 C   -0.184725756160   -0.999780285092    1.563161551854
 H   -0.342949094717   -2.070502966266    1.719843728924
 H    0.910074347911   -1.044129885855   -0.349595916763
 H    1.068443299589    2.476333545411   -1.130005520524
 C    1.216126944573    1.436704580378   -0.837190704323
 H    1.322275063208    0.809763025754   -1.727818636429
 H    2.111304412795    1.361912441649   -0.222741167914
 O    0.126756930614    1.011070565065   -0.046373372085
 H   -0.677411462919    0.963063249196   -0.593182120379
