13

 C    0.008120160719   -0.277878764415   -0.800052131363
 O   -1.082981288858   -0.420686910948   -1.488460101106
 F    1.062847465325   -0.023961122213    1.295011652964
 F   -1.097439869906    0.080568962032    1.275972598235
 C   -0.049945073910   -0.505336276679    0.713718175829
 F   -0.104431216647   -1.814291076680    0.969098240346
 H    0.965395034648   -0.662662818900   -1.190838323969
 H    0.976401549643    2.910358544128   -1.818373955764
 C    1.210430317880    1.867407445941   -1.614232505301
 H    1.400885942214    1.327672415238   -2.544840501846
 H    2.069080440526    1.802856564412   -0.949055996718
 O    0.082549018258    1.297746306946   -0.934682905942
 H   -0.827841590422    0.926814025394   -1.525220866614
