13

 C   -0.081721602363   -0.495160735156   -0.835523440743
 O   -1.098757605867   -0.589622186162   -1.463353848201
 F    1.048968849845   -0.024761837779    1.241487727021
 F   -1.104825921158    0.076785095500    1.264356957118
 C   -0.069143648031   -0.528795727881    0.703953867405
 F   -0.107041001410   -1.833426926294    1.016543312733
 H    0.927358636909   -0.642771294166   -1.261528257352
 H    1.207674414289    2.995357237723   -1.928255136212
 C    1.270243824192    1.944597913317   -1.641769881551
 H    1.373348757662    1.325299140337   -2.538787013447
 H    2.138518447634    1.803016025326   -1.000397534624
 O    0.138824530281    1.563633721186   -0.878294551540
 H   -0.669540288930    1.679961367944   -1.392687637408
