13

 C   -0.034733153043   -0.332987500919   -1.204781466773
 O   -1.020923120090   -0.468208331283   -1.858601095442
CL    1.401793147890    0.373042248541    1.062775282662
CL   -1.494545696473    0.317013769415    1.047115471370
 C   -0.041589375495   -0.379499521061    0.345955541786
CL    0.029302923637   -2.144631741803    0.598596395689
 H    0.993112703279   -0.358407736894   -1.606401702143
 H    1.078070991749    3.316670630955   -2.393493587034
 C    1.159224347507    2.282261253088   -2.053282222268
 H    1.256061466192    1.623160715660   -2.923198997025
 H    2.047804969336    2.185424516439   -1.430509908748
 O    0.056476222969    1.918608735446   -1.241671473313
 H   -0.760970914002    1.993127582912   -1.746160153155
