13

 C    0.069930779394    0.028090975686   -1.164280686920
 O   -1.034134231559   -0.280981036121   -1.897588336190
CL    1.423442981256    0.380431680540    1.119587215981
CL   -1.487827708781    0.325240038533    1.062225972437
 C   -0.017810856511   -0.333298630853    0.345875867766
CL    0.026001062910   -2.100547509981    0.538276976761
 H    1.006056772359   -0.393498866805   -1.550545255282
 H    0.752476641844    3.156906959428   -2.212494899798
 C    1.088328821960    2.143993399266   -1.993261278852
 H    1.318836315218    1.627686727096   -2.931109040611
 H    1.980700623535    2.186040927132   -1.364830860024
 O    0.026651056926    1.497348788429   -1.298773608882
 H   -1.315897838820    0.622604820938   -2.114316261556
