13

 C    0.042826225454   -0.153883968162   -0.799487754588
 O   -1.107536255307   -0.440241305788   -1.499665162201
 F    1.062623369816   -0.026376640251    1.296660150612
 F   -1.098500667253    0.079622703220    1.275599367712
 C   -0.046687162009   -0.495793769109    0.707218782845
 F   -0.105483131402   -1.810445275203    0.962349628119
 H    0.922917995812   -0.668324476978   -1.207613071982
 H    0.943569617122    2.882586924432   -1.791612137787
 C    1.215021985800    1.846168673197   -1.598497050537
 H    1.399251754447    1.337763763651   -2.550286469910
 H    2.116493956913    1.819071234211   -0.981796767854
 O    0.117769237975    1.263656227307   -0.909290430118
 H   -1.430229112469    0.439074355669   -1.735700457207
