13

 C   -0.045528520555   -0.734517875827    0.088289260589
 O   -1.092951925291   -0.771872201179   -0.668868965180
 H    0.716014782083   -0.715411077621    2.116666354122
 H   -1.048418062722   -0.463021736623    1.948387470972
 C   -0.180986950793   -0.997858946091    1.563626730315
 H   -0.351684986161   -2.070291592616    1.685967732575
 H    0.922034280783   -1.059878789132   -0.337665551432
 H    1.014627604233    2.456888551406   -1.095775332025
 C    1.205433447545    1.420741456471   -0.829459902177
 H    1.326599109294    0.820038743712   -1.735357403305
 H    2.108071099134    1.364269739264   -0.220494387170
 O    0.109144144367    0.944936764632   -0.057132882828
 H   -0.729309049624    0.631334857918   -0.632396457615
