13

 C   -0.163792371854   -1.043853813228    0.060974533167
 O   -1.125555700495   -0.951677888025   -0.659637813011
 H    0.696144699862   -0.606273873933    1.973622244484
 H   -1.087074285047   -0.486887460920    1.907568475307
 C   -0.214854823868   -1.039342115142    1.561561993820
 H   -0.292429985945   -2.077061621752    1.901908444278
 H    0.842549743139   -1.205541354015   -0.375821944051
 H    1.260644563034    2.522660975581   -1.283213827826
 C    1.270841977216    1.506633053419   -0.879380868870
 H    1.272299312633    0.791517127137   -1.709749871828
 H    2.183879754191    1.374167065104   -0.299103736724
 O    0.188797399272    1.283893243377    0.000458478447
 H   -0.632190188436    1.279955748028   -0.502182495959
