13

 C    0.002947178467   -0.637037852971    0.101353395706
 O   -1.114885105499   -0.765886401271   -0.684058746101
 H    0.711537228500   -0.720240354489    2.119797275629
 H   -1.043765210965   -0.456138013502    1.949723328501
 C   -0.181736462876   -0.997047502266    1.558442019022
 H   -0.355149257660   -2.069522752218    1.668904022012
 H    0.895818408484   -1.091381634106   -0.345721611736
 H    0.981118806431    2.443228181040   -1.071442583176
 C    1.205333272787    1.405912538758   -0.817649793419
 H    1.328906825746    0.833977868805   -1.745355237151
 H    2.141129736453    1.377581343894   -0.251404629014
 O    0.128991646434    0.905875968061   -0.038623829796
 H   -1.235635302273    0.177573983782   -0.882287287415
