13

 C    0.046567256630    0.168783276522   -1.611402548747
 O   -0.934905531391    0.127968519223   -2.316031143027
BR    1.578577476796    0.458581534883    0.879149707755
BR   -1.601386900657    0.642100291945    0.721284598648
 C   -0.026206983435   -0.121238907750   -0.077710054190
BR   -0.113120380304   -2.058964510447   -0.080843418785
 H    1.077248828095   -0.012618941009   -1.972098096262
 H    1.229775761312    3.592347180875   -2.425457671716
 C    1.357313236288    2.527435024042   -2.232283913195
 H    1.503367528189    1.990076728243   -3.173971552578
 H    2.214973182299    2.377626730601   -1.579816217472
 O    0.228781031202    2.032125503298   -1.533380311320
 H   -0.578315556136    2.149364225644   -2.056772754473
