13

 C    0.025948118176    0.070215994876   -1.617029903026
 O   -0.946117902039    0.067490858663   -2.312727745939
BR    1.571624154517    0.457847550722    0.866366463959
BR   -1.602344817013    0.642555926052    0.718516064730
 C   -0.034501805290   -0.133295994479   -0.078774517739
BR   -0.112360664185   -2.072846743930   -0.070507134510
 H    1.060977265274   -0.026303434611   -1.989654902592
 H    1.354662609830    3.641012376470   -2.493629939676
 C    1.391517061971    2.577864801237   -2.249210260509
 H    1.472831031633    1.995142128532   -3.173258837723
 H    2.263560216508    2.388017349473   -1.624802079105
 O    0.261302402968    2.192428118721   -1.488909150315
 H   -0.546151997805    2.340212609982   -1.995367685197
