13

 C   -0.107328221885   -0.847408171651    0.064831290081
 O   -1.093530389543   -0.844068272574   -0.659388358391
 H    0.724500146151   -0.682533705112    2.064835955676
 H   -1.049871783302   -0.461852334227    1.951450572885
 C   -0.188284527548   -1.003413431814    1.562398886999
 H   -0.336810616843   -2.070916101609    1.750684983715
 H    0.898838538975   -1.050417293123   -0.358021763980
 H    1.106566876363    2.486608856867   -1.154898340095
 C    1.225422191325    1.447981701661   -0.842787990660
 H    1.318182664249    0.805624335302   -1.724648778871
 H    2.122837191364    1.362622710980   -0.232289426941
 O    0.136978386049    1.055532801218   -0.038081007018
 H   -0.674150301902    1.051313703057   -0.567986958273
