13

 C   -0.098586538542   -0.824286266622    0.066888827337
 O   -1.090615607197   -0.830386118080   -0.659387365948
 H    0.723530674345   -0.690952333749    2.077629976610
 H   -1.049481719559   -0.463011984254    1.953212203646
 C   -0.186264265625   -1.001213227845    1.562801052416
 H   -0.340211119424   -2.070695118919    1.733225113839
 H    0.905082618880   -1.045902282282   -0.353570690810
 H    1.085636060882    2.481099831511   -1.141051697054
 C    1.220239146046    1.441698341689   -0.839586072997
 H    1.320689630664    0.807800078520   -1.726298272303
 H    2.116254357005    1.362230681918   -0.226688010577
 O    0.131444730200    1.030877127006   -0.042720158209
 H   -0.676271371181    1.007347897605   -0.581133377496
