13

 C    0.036226172641   -0.121651725665   -0.806487114382
 O   -1.112163560107   -0.471491772277   -1.498089847229
 F    1.063032595631   -0.026898815267    1.298404841133
 F   -1.100108101293    0.080570336707    1.276440836707
 C   -0.045956671097   -0.486434454300    0.699402818100
 F   -0.105936595151   -1.802138379632    0.948826433764
 H    0.910948525110   -0.638920100589   -1.221099796061
 H    0.951570980438    2.873719624929   -1.782589706368
 C    1.221938030103    1.836490242845   -1.594398299903
 H    1.388423081344    1.327770105679   -2.548793949681
 H    2.131592333644    1.804485733044   -0.989801210405
 O    0.130882831931    1.265445073497   -0.891588972400
 H   -1.546539068714    0.366096912782   -1.696887315609
