13

 C    0.007338614113   -0.528656508235    0.085616405640
 O   -1.131243746663   -0.813010161851   -0.690352417328
 H    0.709610629720   -0.732808656891    2.116977166769
 H   -1.040521543888   -0.453043840030    1.957636443114
 C   -0.180280348712   -0.971939539922    1.532012672842
 H   -0.359643850133   -2.047303349179    1.572502606185
 H    0.874286616340   -1.030377981202   -0.364560365789
 H    0.959271686508    2.419769818995   -1.032664328201
 C    1.205954480709    1.382908985028   -0.806680660608
 H    1.298479706284    0.826556953436   -1.745691437138
 H    2.161223123716    1.354626873099   -0.273164193652
 O    0.159019548330    0.876896834578    0.000927546232
 H   -1.472708611287    0.049932023134   -0.945186766619
