13

 C   -0.162895177056   -1.040488192509    0.060888321206
 O   -1.124932991322   -0.949627991291   -0.659677306943
 H    0.697516538667   -0.607926797199    1.974856508265
 H   -1.085478244922   -0.485135046983    1.908442225587
 C   -0.214130990748   -1.038418598748    1.561548210501
 H   -0.293911569689   -2.076685018183    1.899691727079
 H    0.843643919389   -1.200935834606   -0.375865229793
 H    1.258365163374    2.522197595086   -1.280553465768
 C    1.270051048991    1.505497265848   -0.878524979442
 H    1.273531044958    0.791807087003   -1.710122896556
 H    2.182720016758    1.373657478474   -0.297537849446
 O    0.187589877192    1.279415274999   -0.000227302370
 H   -0.633165704716    1.276546007883   -0.503373397229
