13

 C    0.014598230303   -0.269815000059   -0.797342499604
 O   -1.085329731371   -0.415410481573   -1.490592071312
 F    1.062759025109   -0.024118313081    1.294991430446
 F   -1.097399235039    0.080477624496    1.275839137422
 C   -0.049582581146   -0.505096112839    0.713804968898
 F   -0.104519221591   -1.814341264335    0.969006793426
 H    0.962272110792   -0.668005576443   -1.190398308322
 H    0.972669808046    2.912143892256   -1.817339845873
 C    1.210573725597    1.865672355585   -1.612776437127
 H    1.401582973397    1.329187316189   -2.545799062003
 H    2.071293498552    1.805093722107   -0.953432106567
 O    0.084307740463    1.294249535266   -0.933710140919
 H   -0.895134514563    0.825791955103   -1.548975675865
