13

 C    0.033646356424   -0.237388869305   -0.791300698837
 O   -1.093839729626   -0.409075392828   -1.496462010352
 F    1.062359610425   -0.024761675049    1.294899830357
 F   -1.097450763381    0.080152902954    1.275453346255
 C   -0.048378907982   -0.503688780302    0.713584158928
 F   -0.104840713628   -1.814491216933    0.968615340751
 H    0.950398995709   -0.685672125629   -1.192735033969
 H    0.962927082640    2.903876541658   -1.811258089651
 C    1.210706784694    1.860136990975   -1.607895310422
 H    1.403930809796    1.335205927885   -2.548894480389
 H    2.088111590007    1.813564061397   -0.964872012534
 O    0.093994726390    1.284246158817   -0.927773734453
 H   -1.139522175090    0.579590659310   -1.650290062852
