13

 C   -0.067160039683   -0.431966626336   -0.833421230542
 O   -1.088154576401   -0.542891835751   -1.468971156174
 F    1.054323384678   -0.023638037877    1.268735393919
 F   -1.100920424910    0.080534806128    1.274190966522
 C   -0.062061287615   -0.514851502853    0.706483897146
 F   -0.104476730149   -1.823334551431    0.989519673244
 H    0.941310958272   -0.632507865117   -1.244010884940
 H    1.132505845750    2.967682420632   -1.893428021660
 C    1.248550433837    1.916001481743   -1.631892611303
 H    1.389409573554    1.318901958300   -2.537721903934
 H    2.108354165469    1.801997446027   -0.974856253630
 O    0.120229207060    1.471697140248   -0.898703681118
 H   -0.689686750021    1.562143762087   -1.420945305681
