13

 C   -0.073704852661   -0.773442287279    0.075433656718
 O   -1.087624901524   -0.797562683950   -0.661820218005
 H    0.719435432550   -0.707674531544    2.104467174668
 H   -1.049232830944   -0.464458360011    1.952160476540
 C   -0.182465991956   -0.998186672210    1.563696574418
 H   -0.347400057681   -2.070241290974    1.700181185966
 H    0.917848346379   -1.046097894852   -0.342740465415
 H    1.040562785685    2.467021780405   -1.112224611954
 C    1.209826519387    1.428770583796   -0.833641132255
 H    1.324257815130    0.813746657115   -1.730910488664
 H    2.105408081515    1.361640410220   -0.217982482990
 O    0.118235394312    0.978507479417   -0.052121205238
 H   -0.680979367263    0.856693959326   -0.613003013730
