13

 C    0.060362143615    0.097446888933   -1.179600745134
 O   -1.040310719281   -0.325742973452   -1.898967531750
CL    1.423539660333    0.379663546990    1.120537904994
CL   -1.488474111580    0.325636238129    1.062571117923
 C   -0.016478338995   -0.320145202712    0.332659009011
CL    0.025380708892   -2.094957065736    0.532632215750
 H    0.980252411316   -0.352522857008   -1.572964339243
 H    0.746665429410    3.138827850727   -2.192946124810
 C    1.096418554396    2.129430768706   -1.984741790790
 H    1.305076793589    1.617624166329   -2.929147587511
 H    2.003854279299    2.176546451663   -1.377640345188
 O    0.050088354543    1.488349012887   -1.272710466844
 H   -1.525276396536    0.482404056726   -2.103109764177
