13

 C   -0.143918401782   -0.968838220840    0.060451659981
 O   -1.112084362069   -0.908765966625   -0.660262242003
 H    0.716998865793   -0.638203448709    2.004329930280
 H   -1.062267594778   -0.463751260604    1.927726163683
 C   -0.201717363508   -1.021695382547    1.561481859234
 H   -0.316216652579   -2.072311999834    1.847065943623
 H    0.865432233853   -1.118260515858   -0.373176806083
 H    1.205967581754    2.510792908020   -1.229649153415
 C    1.253005292835    1.482550184632   -0.862835629774
 H    1.295958838041    0.797055776608   -1.716823680664
 H    2.159305544078    1.366701327743   -0.269005484214
 O    0.165849227391    1.189939911956   -0.014191340914
 H   -0.651634080193    1.204014198608   -0.524847637142
