13

 C   -0.033894519777   -0.324658416940   -1.205482821916
 O   -1.020192300393   -0.463079263175   -1.859607596944
CL    1.403230672997    0.374148115726    1.068833266420
CL   -1.493733381246    0.318853763797    1.049686311571
 C   -0.040430225297   -0.374664597869    0.345872177885
CL    0.029344086353   -2.139975293919    0.591067482683
 H    0.994416645611   -0.356698859356   -1.605649172487
 H    1.064274491433    3.308599141551   -2.386125501769
 C    1.155567455797    2.273761114116   -2.050229126128
 H    1.262543843659    1.618995656415   -2.922154456461
 H    2.042005184934    2.183640991365   -1.423530991730
 O    0.052900789437    1.895897263496   -1.245401451038
 H   -0.763751868426    1.965172455030   -1.752306030236
