13

 C    0.015784941984   -0.268322259299   -0.796867761806
 O   -1.085771182746   -0.414476474941   -1.490986728615
 F    1.062736528598   -0.024148370837    1.294981281376
 F   -1.097397498648    0.080462222796    1.275816893579
 C   -0.049515431256   -0.505043274176    0.713814695634
 F   -0.104534929538   -1.814356265920    0.968995376216
 H    0.961588452667   -0.669009281440   -1.190366602473
 H    0.971965069524    2.912698294734   -1.817228428484
 C    1.210631196707    1.865331437069   -1.612477285744
 H    1.401740788082    1.329482834325   -2.545975017308
 H    2.071586567549    1.805576936852   -0.954456421614
 O    0.084766547975    1.293724219427   -0.933448406728
 H   -0.909398813988    0.805772358943   -1.554313462975
