13

 C   -0.035053197875   -0.336094711123   -1.204523421019
 O   -1.021214492057   -0.470075325167   -1.858236043130
CL    1.401264181910    0.372581930852    1.060285785012
CL   -1.494904093039    0.316197667711    1.046027052821
 C   -0.042038509645   -0.381489127713    0.345986148202
CL    0.029264078239   -2.146502095063    0.601762100060
 H    0.992610243686   -0.359011060892   -1.606693712802
 H    1.083407585907    3.319976063401   -2.396219338551
 C    1.160636721524    2.285714824824   -2.054492576766
 H    1.253374959335    1.625073681068   -2.923713743298
 H    2.050084368314    2.186123782912   -1.433343476744
 O    0.057945554276    1.927549346493   -1.240211692023
 H   -0.759614466933    2.004300299078   -1.743478302582
