13

 C    0.026401334592   -0.090714755528   -0.798832641415
 O   -1.092736876610   -0.535132601926   -1.484800094830
 F    1.059188866841   -0.021343586047    1.310720671173
 F   -1.105519034732    0.093019031244    1.277392964950
 C   -0.041609615630   -0.459273389078    0.688376086091
 F   -0.111690296108   -1.779186719783    0.876024762006
 H    0.896492445029   -0.602882725572   -1.222842596346
 H    1.053093503752    2.863572462806   -1.733171560392
 C    1.235010885582    1.799759581426   -1.597024132197
 H    1.300822140048    1.316978950039   -2.576383994321
 H    2.169915475081    1.659252209229   -1.047170934626
 O    0.138218677634    1.291381581308   -0.853659401968
 H   -1.816580634304    0.068159286849   -1.278808724494
