13

 C   -0.010127160082   -0.164155435933   -1.204930552389
 O   -1.007245837053   -0.355914811017   -1.872911718619
CL    1.421652263719    0.381163609928    1.114961421736
CL   -1.489178733796    0.325659146094    1.063193028096
 C   -0.026027127262   -0.340649833569    0.349229665798
CL    0.027244811375   -2.103569759857    0.543303832355
 H    1.022425064522   -0.334627955285   -1.569202710719
 H    0.866457430303    3.216251223738   -2.276334284341
 C    1.104570962659    2.185808221385   -2.016168122263
 H    1.312191658994    1.604960664096   -2.918915586174
 H    1.963070574448    2.166043179176   -1.348973356026
 O    0.018230027637    1.627097935625   -1.295577732010
 H   -0.791533834576    1.620772515439   -1.832871375268
