13

 C    0.088138687018    0.266079986020   -1.582548357684
 O   -0.926550251176    0.201910977605   -2.315997317210
BR    1.580288119808    0.458350184071    0.882606121730
BR   -1.600624908959    0.641648257215    0.721312887635
 C   -0.019055122041   -0.117164695145   -0.075026758288
BR   -0.113606947766   -2.056053838344   -0.083323871320
 H    1.095277684973   -0.026890592082   -1.939571155389
 H    1.123283359884    3.550647452826   -2.373806290285
 C    1.331381510422    2.495746973784   -2.223648555383
 H    1.510934085677    1.997398155602   -3.179101133830
 H    2.182819291865    2.373104034507   -1.556908472432
 O    0.201632548039    1.917246649303   -1.568417945636
 H   -0.593898354941    1.848116165843   -2.160163004038
