13

 C   -0.122893321312   -0.894724563398    0.062212491321
 O   -1.100284169120   -0.869987078420   -0.659833079186
 H    0.724242284136   -0.665339683795    2.039879670682
 H   -1.052235068954   -0.460149931134    1.944556046615
 C   -0.192839785539   -1.009198366494    1.561814134984
 H   -0.329717564844   -2.071299379940    1.787852293480
 H    0.886002633325   -1.067241000485   -0.365423114704
 H    1.147238053419    2.496835819659   -1.183455348813
 C    1.236036065222    1.461048932625   -0.849962869809
 H    1.311314801715    0.801854361648   -1.721705223213
 H    2.136805506108    1.363590727858   -0.245395297118
 O    0.147935616132    1.106546242159   -0.028572187604
 H   -0.667077669098    1.120608304805   -0.547462418449
