13

 C   -0.025624558816   -0.248202554250   -1.209421010112
 O   -1.014329159344   -0.414700091802   -1.867766973005
CL    1.414371183220    0.379289908704    1.100523490813
CL   -1.490776499467    0.324938294795    1.060668688189
 C   -0.032487644832   -0.350522234042    0.346215662455
CL    0.028324212680   -2.114550234664    0.556315418682
 H    1.006257256067   -0.341025138773   -1.594785957980
 H    0.962772540393    3.258473556855   -2.328322310695
 C    1.129201545935    2.222571528957   -2.030679615176
 H    1.296902774321    1.605680065644   -2.919374813937
 H    2.000944456570    2.172610448480   -1.380665963735
 O    0.033278827393    1.745254901551   -1.271436868990
 H   -0.781887001104    1.786955586563   -1.788713672308
