13

 C   -0.136604172966   -0.942011402853    0.060846278083
 O   -1.107621923867   -0.894584142239   -0.660211904909
 H    0.720752403670   -0.648221119030    2.016733331995
 H   -1.057482905751   -0.461091023634    1.934464453511
 C   -0.198170155921   -1.016644797240    1.561536391635
 H   -0.321727063540   -2.071772338146    1.825683365265
 H    0.873030611874   -1.095783148075   -0.370850288957
 H    1.185198126044    2.505969522370   -1.212493572274
 C    1.246750050573    1.474541358887   -0.857895154208
 H    1.302294484563    0.798755022348   -1.718768269914
 H    2.151026354834    1.365258043826   -0.259997815561
 O    0.159071859068    1.158933973938   -0.019341372699
 H   -0.657652819342    1.175733854789   -0.532389426779
