13

 C    0.042202161427    0.152172863227   -1.613595316253
 O   -0.937175746478    0.117009453811   -2.316200919989
BR    1.577911198878    0.458559675220    0.877939544908
BR   -1.601529809404    0.642198521620    0.721130248407
 C   -0.027440868872   -0.122528639804   -0.078331311439
BR   -0.113014423573   -2.060131513973   -0.079957102154
 H    1.074059768710   -0.013602731247   -1.976757331518
 H    1.249220650697    3.599582551016   -2.435379907136
 C    1.362416787070    2.534185077772   -2.234432341329
 H    1.500156503140    1.989896161081   -3.173718464606
 H    2.222301185210    2.378712593414   -1.585851494623
 O    0.233358724756    2.054453088165   -1.526571693039
 H   -0.574343886083    2.179945631514   -2.045239790327
