13

 C   -0.141875569489   -0.961262734311    0.060536526675
 O   -1.110799383572   -0.904709297615   -0.660264759950
 H    0.718215479437   -0.641068330373    2.007773496595
 H   -1.060750517478   -0.462785571625    1.929686232074
 C   -0.200666149040   -1.020199298358    1.561491645885
 H   -0.317874464009   -2.072119066164    1.841064374456
 H    0.867602854615   -1.111431247058   -0.372574543392
 H    1.200139856200    2.509460319132   -1.224722614420
 C    1.251223590037    1.480260189584   -0.861399426420
 H    1.297858482472    0.797550493521   -1.717404053953
 H    2.156945162309    1.366254764389   -0.266394122992
 O    0.163882845885    1.181048458835   -0.015642733103
 H   -0.653403612062    1.196160096796   -0.526962531816
