13

 C   -0.037997718043   -0.725372066179    0.091798616430
 O   -1.095247476894   -0.766306319243   -0.671186204813
 H    0.715292637027   -0.716178528896    2.117540791531
 H   -1.048400565439   -0.462074337072    1.947789309214
 C   -0.180938485264   -0.998011942880    1.563406786574
 H   -0.352441000382   -2.070345860062    1.684861106809
 H    0.920878695760   -1.065162930214   -0.337184729605
 H    1.010170000647    2.456670233509   -1.093698685519
 C    1.205172559329    1.418999401899   -0.828202831076
 H    1.327454889502    0.821389888579   -1.736644166102
 H    2.110575415166    1.365846876747   -0.223582489705
 O    0.108794485057    0.939014570780   -0.057093664248
 H   -0.770752573336    0.553104745618   -0.647729059864
