13

 C    0.138058069632    0.467814026897   -1.561555616101
 O   -0.959548730245    0.152394658424   -2.346544269760
BR    1.579878598894    0.457455766378    0.882847292778
BR   -1.600891389015    0.642472344433    0.721238978492
 C   -0.010400578707   -0.090838447889   -0.101284777824
BR   -0.113706409784   -2.047824562391   -0.088877903350
 H    1.030606600674   -0.009700462168   -1.982115225814
 H    1.088588792610    3.499796132592   -2.314710535672
 C    1.339320276015    2.447234275114   -2.198649888829
 H    1.475016073026    1.996974767870   -3.186250644748
 H    2.258403840362    2.353106159363   -1.614444336657
 O    0.249275820530    1.851792344768   -1.508949493391
 H   -1.497854872272    0.950132394764   -2.384182347852
