13

 C   -0.185362033115   -1.120086150194    0.064948441506
 O   -1.139033980706   -0.997619546857   -0.659707629544
 H    0.648380482646   -0.555877880414    1.947413301873
 H   -1.139324959844   -0.552857669483    1.891387002394
 C   -0.235852763861   -1.064051158949    1.562846504604
 H   -0.240058438758   -2.089231980326    1.947399949966
 H    0.815101960408   -1.323645207376   -0.368843852783
 H    1.299402938769    2.531967871918   -1.351967408333
 C    1.287510499116    1.535133380697   -0.901829547088
 H    1.244828478851    0.784419273421   -1.698722481290
 H    2.212249136877    1.398783645054   -0.341193793824
 O    0.222395484523    1.386890273706    0.016919877568
 H   -0.607695991155    1.356011616366   -0.467910271008
