13

 C    0.148636001675    0.378388349448   -1.546805398759
 O   -0.951020013835    0.227283576314   -2.334156283678
BR    1.580101500320    0.458075872375    0.882696026330
BR   -1.600448363335    0.641641489686    0.721142954892
 C   -0.015738875759   -0.113367715134   -0.080312076475
BR   -0.113862229515   -2.055811457666   -0.083774951742
 H    1.064047538073   -0.070312228333   -1.951265024014
 H    1.078311186763    3.526411058030   -2.349427047213
 C    1.328972809130    2.475042978782   -2.210819524086
 H    1.515465246532    2.015256836703   -3.186923539721
 H    2.222132293583    2.394897181058   -1.586688492839
 O    0.218319957341    1.865015511342   -1.559212479038
 H   -1.148386917637    1.169489678576   -2.466965628790
