13

 C   -0.165581490048   -1.050537681824    0.061165414550
 O   -1.126790860084   -0.955765614110   -0.659562927289
 H    0.693273039376   -0.602890958932    1.971208365020
 H   -1.090402775567   -0.490611222049    1.905860947316
 C   -0.216334591579   -1.041210664352    1.561595226808
 H   -0.289327350816   -2.077857585002    1.906236610395
 H    0.840353246354   -1.214855636838   -0.375677478657
 H    1.265080129965    2.523564294315   -1.288573773944
 C    1.272404143292    1.508910659815   -0.881113698420
 H    1.269832891003    0.790940243419   -1.708990054725
 H    2.186199108376    1.375267378817   -0.302278715463
 O    0.191254656233    1.292829549178    0.001830932790
 H   -0.630258626803    1.286742717385   -0.499764936241
