13

 C   -0.029835018027   -0.284072467730   -1.208298113515
 O   -1.017053174125   -0.437587721592   -1.864294852990
CL    1.409696762455    0.377595894893    1.089294550556
CL   -1.491642870382    0.323457939317    1.057346992756
 C   -0.035749375009   -0.358719853610    0.345750245707
CL    0.028906517030   -2.123586310572    0.567672000305
 H    1.000500087165   -0.347287390622   -1.601195451614
 H    1.006525941546    3.278989771529   -2.353211679277
 C    1.140471055591    2.242797239390   -2.038514120817
 H    1.284434175825    1.609043298981   -2.920080512957
 H    2.018556370460    2.176875120263   -1.397864220835
 O    0.040805477337    1.806757277212   -1.260370707640
 H   -0.774415551068    1.859780204716   -1.773963117437
