13

 C   -0.035210885630   -0.337602134204   -1.204400262702
 O   -1.021360481580   -0.470969942812   -1.858061970134
CL    1.401010338615    0.372347302204    1.059026680187
CL   -1.495090618898    0.315770890076    1.045469895223
 C   -0.042259991573   -0.382496490469    0.346000092623
CL    0.029239590442   -2.147437853362    0.603378916142
 H    0.992362634396   -0.359290994305   -1.606840775323
 H    1.086038302716    3.321649434181   -2.397531737426
 C    1.161331580475    2.287454810219   -2.055095231241
 H    1.252007634334    1.626088190498   -2.923994007289
 H    2.051210866814    2.186468527712   -1.434775116010
 O    0.058713194854    1.931989568877   -1.239474026375
 H   -0.759252357364    2.009919073670   -1.742313388565
