13

 C   -0.037295878420   -0.355776728076   -1.203216687397
 O   -1.023503718640   -0.480656001058   -1.856328393106
CL    1.398339485755    0.368688913477    1.040733801045
CL   -1.498186006928    0.308462944550    1.036936470632
 C   -0.045067568235   -0.397097039453    0.346019009597
CL    0.028509381418   -2.160187889121    0.627991475086
 H    0.989009949893   -0.362198986040   -1.609142588971
 H    1.120221813346    3.346670338391   -2.411944675727
 C    1.170082468308    2.312656009587   -2.063427054526
 H    1.231022143890    1.644616026090   -2.929930295309
 H    2.066322361552    2.190522571713   -1.455920599367
 O    0.070045799693    1.991521027319   -1.229495279365
 H   -0.750581896022    2.087218324951   -1.722701157914
