13

 C   -0.131083892623   -0.922433644342    0.061299139617
 O   -1.104511316072   -0.884429834464   -0.660088230262
 H    0.722625893880   -0.655351297335    2.026116868289
 H   -1.054890100341   -0.460246568911    1.938958483114
 C   -0.195844874078   -1.013355673410    1.561619274849
 H   -0.325229463507   -2.071542652784    1.809992184293
 H    0.878445678176   -1.082344523871   -0.368817516251
 H    1.169737310822    2.502288967439   -1.200350887959
 C    1.242276299890    1.468870970404   -0.854507481015
 H    1.306315558476    0.799984857394   -1.720030812170
 H    2.145095386013    1.364445196485   -0.253781120367
 O    0.154391878456    1.136989829988   -0.023125873429
 H   -0.661901567593    1.153972385497   -0.538320920396
