13

 C    0.138632405857    0.467361786241   -1.561410619287
 O   -0.960022090111    0.154910144780   -2.345984296400
BR    1.579891819323    0.457482194179    0.882849555340
BR   -1.600854000440    0.642387947229    0.721238888292
 C   -0.010677821738   -0.091316156517   -0.100852750589
BR   -0.113734970320   -2.048475682586   -0.088475815102
 H    1.031419856019   -0.010441651390   -1.981354052172
 H    1.086069364064    3.500380041283   -2.316369307086
 C    1.339038486428    2.448483746343   -2.198997679791
 H    1.477744879679    1.997756293313   -3.186002052499
 H    2.257231963621    2.357046352818   -1.613011704809
 O    0.248960329115    1.851570211096   -1.510917954164
 H   -1.487094722493    0.960891973647   -2.396997562887
