13

 C   -0.110078080515   -0.855216130066    0.064276280377
 O   -1.094593258114   -0.848519547788   -0.659440936843
 H    0.724668134349   -0.679678396257    2.060587893063
 H   -1.050101801100   -0.461476103959    1.950589641274
 C   -0.188995760762   -1.004254826330    1.562279411872
 H   -0.335658383819   -2.070984855731    1.756727319140
 H    0.896721152863   -1.052491280364   -0.359399526815
 H    1.113497577201    2.488389526974   -1.159601271955
 C    1.227177803868    1.450121178364   -0.843920000156
 H    1.317200101047    0.804939807694   -1.724133076140
 H    2.125116658390    1.362757245782   -0.234321725371
 O    0.138807933253    1.063903882485   -0.036501650685
 H   -0.673211620295    1.064296042407   -0.564044463524
