13

 C    0.042475129085   -0.195993309754   -0.793153348985
 O   -1.101148836506   -0.420604212412   -1.498953873163
 F    1.062296399576   -0.025527318875    1.295410665296
 F   -1.097744103277    0.079802114135    1.275289177847
 C   -0.047421585903   -0.500907101509    0.711754532211
 F   -0.105172252240   -1.813622234079    0.966998775052
 H    0.936434991144   -0.687349676350   -1.198139059847
 H    0.952176905236    2.892763520009   -1.802215300108
 C    1.211931400308    1.853715431543   -1.603109552604
 H    1.403444604880    1.338935388034   -2.550342755053
 H    2.103947185878    1.819274924780   -0.974154075716
 O    0.105102791972    1.272766679609   -0.920000420210
 H   -1.308581157622    0.503213555917   -1.716219179152
