13

 C   -0.083502649406   -0.503623889458   -0.835713307087
 O   -1.100309989661   -0.595764142263   -1.462592549623
 F    1.048339821549   -0.025035758265    1.237107463298
 F   -1.105518274947    0.075986875169    1.262443079207
 C   -0.070141335098   -0.531282602497    0.703616589694
 F   -0.107517685016   -1.834983353719    1.021392105986
 H    0.925464850462   -0.644814903656   -1.263659197262
 H    1.217684308321    2.999338232003   -1.932547714073
 C    1.273202794004    1.948854099726   -1.643143566257
 H    1.370657118549    1.327036980824   -2.539167082067
 H    2.142589662943    1.803090173018   -1.004098700559
 O    0.141596162007    1.576639455467   -0.875499880413
 H   -0.666637211386    1.696532152631   -1.388739752709
